# generated using pymatgen
data_CeO2
_symmetry_space_group_name_H-M   'P 1'
_cell_length_a   30.92860000
_cell_length_b   30.92860000
_cell_length_c   261.30700000
_cell_angle_alpha   90.00000000
_cell_angle_beta   90.00000000
_cell_angle_gamma   60.00000000
_symmetry_Int_Tables_number   1
_chemical_formula_structural   CeO2
_chemical_formula_sum   'Ce448 O896'
_cell_volume   216472.23413949
_cell_formula_units_Z   448
loop_
 _symmetry_equiv_pos_site_id
 _symmetry_equiv_pos_as_xyz
  1  'x, y, z'
loop_
 _atom_site_type_symbol
 _atom_site_label
 _atom_site_symmetry_multiplicity
 _atom_site_fract_x
 _atom_site_fract_y
 _atom_site_fract_z
 _atom_site_occupancy
  Ce  Ce0  1  0.00000000  0.00000000  0.45923000  1
  Ce  Ce1  1  0.12500000  0.12500000  0.45923000  1
  Ce  Ce2  1  0.12500000  0.00000000  0.45923000  1
  Ce  Ce3  1  1.00000000  0.12500000  0.45923000  1
  O  O4  1  0.25000000  1.00000000  0.46829000  1
  O  O5  1  0.16667000  0.16667000  0.46225000  1
  O  O6  1  0.16667000  0.04167000  0.46225000  1
  O  O7  1  0.25000000  0.12500000  0.46829000  1
  O  O8  1  0.12500000  0.12500000  0.46829000  1
  O  O9  1  0.04167000  0.04167000  0.46225000  1
  O  O10  1  0.04167000  0.16667000  0.46225000  1
  O  O11  1  0.12500000  1.00000000  0.46829000  1
  Ce  Ce12  1  0.16667000  0.16667000  0.47131000  1
  Ce  Ce13  1  0.04167000  0.04167000  0.47131000  1
  Ce  Ce14  1  0.04167000  0.16667000  0.47131000  1
  Ce  Ce15  1  0.16667000  0.04167000  0.47131000  1
  O  O16  1  0.16667000  0.16667000  0.48037000  1
  O  O17  1  0.08333000  0.08333000  0.47433000  1
  O  O18  1  0.08333000  0.20833000  0.47433000  1
  O  O19  1  0.16667000  0.04167000  0.48037000  1
  O  O20  1  0.04167000  0.04167000  0.48037000  1
  O  O21  1  0.20833000  0.20833000  0.47433000  1
  O  O22  1  0.20833000  0.08333000  0.47433000  1
  O  O23  1  0.04167000  0.16667000  0.48037000  1
  Ce  Ce24  1  0.08333000  0.08333000  0.48339000  1
  Ce  Ce25  1  0.20833000  0.20833000  0.48339000  1
  Ce  Ce26  1  0.20833000  0.08333000  0.48339000  1
  Ce  Ce27  1  0.08333000  0.20833000  0.48339000  1
  O  O28  1  0.08333000  0.08333000  0.49245000  1
  O  O29  1  0.25000000  1.00000000  0.48641000  1
  O  O30  1  0.25000000  0.12500000  0.48641000  1
  O  O31  1  0.08333000  0.20833000  0.49245000  1
  O  O32  1  0.20833000  0.20833000  0.49245000  1
  O  O33  1  0.12500000  0.12500000  0.48641000  1
  O  O34  1  0.12500000  1.00000000  0.48641000  1
  O  O35  1  0.20833000  0.08333000  0.49245000  1
  Ce  Ce36  1  0.25000000  1.00000000  0.49547000  1
  Ce  Ce37  1  0.12500000  0.12500000  0.49547000  1
  Ce  Ce38  1  0.12500000  1.00000000  0.49547000  1
  Ce  Ce39  1  0.25000000  0.12500000  0.49547000  1
  O  O40  1  0.25000000  1.00000000  0.50453000  1
  O  O41  1  0.16667000  0.16667000  0.49849000  1
  O  O42  1  0.16667000  0.04167000  0.49849000  1
  O  O43  1  0.25000000  0.12500000  0.50453000  1
  O  O44  1  0.12500000  0.12500000  0.50453000  1
  O  O45  1  0.04167000  0.04167000  0.49849000  1
  O  O46  1  0.04167000  0.16667000  0.49849000  1
  O  O47  1  0.12500000  1.00000000  0.50453000  1
  Ce  Ce48  1  0.16667000  0.16667000  0.50755000  1
  Ce  Ce49  1  0.04167000  0.04167000  0.50755000  1
  Ce  Ce50  1  0.04167000  0.16667000  0.50755000  1
  Ce  Ce51  1  0.16667000  0.04167000  0.50755000  1
  O  O52  1  0.16667000  0.16667000  0.51661000  1
  O  O53  1  0.08333000  0.08333000  0.51057000  1
  O  O54  1  0.08333000  0.20833000  0.51057000  1
  O  O55  1  0.16667000  0.04167000  0.51661000  1
  O  O56  1  0.04167000  0.04167000  0.51661000  1
  O  O57  1  0.20833000  0.20833000  0.51057000  1
  O  O58  1  0.20833000  0.08333000  0.51057000  1
  O  O59  1  0.04167000  0.16667000  0.51661000  1
  Ce  Ce60  1  0.08333000  0.08333000  0.51963000  1
  Ce  Ce61  1  0.20833000  0.20833000  0.51963000  1
  Ce  Ce62  1  0.20833000  0.08333000  0.51963000  1
  Ce  Ce63  1  0.08333000  0.20833000  0.51963000  1
  O  O64  1  0.08333000  0.08333000  0.52869000  1
  O  O65  1  0.25000000  1.00000000  0.52265000  1
  O  O66  1  0.25000000  0.12500000  0.52265000  1
  O  O67  1  0.08333000  0.20833000  0.52869000  1
  O  O68  1  0.20833000  0.20833000  0.52869000  1
  O  O69  1  0.12500000  0.12500000  0.52265000  1
  O  O70  1  0.12500000  1.00000000  0.52265000  1
  O  O71  1  0.20833000  0.08333000  0.52869000  1
  Ce  Ce72  1  0.25000000  1.00000000  0.53171000  1
  Ce  Ce73  1  0.12500000  0.12500000  0.53171000  1
  Ce  Ce74  1  0.12500000  1.00000000  0.53171000  1
  Ce  Ce75  1  0.25000000  0.12500000  0.53171000  1
  O  O76  1  0.25000000  1.00000000  0.54077000  1
  O  O77  1  0.16667000  0.16667000  0.53473000  1
  O  O78  1  0.16667000  0.04167000  0.53473000  1
  O  O79  1  0.25000000  0.12500000  0.54077000  1
  O  O80  1  0.12500000  0.12500000  0.54077000  1
  O  O81  1  0.04167000  0.04167000  0.53473000  1
  O  O82  1  0.04167000  0.16667000  0.53473000  1
  O  O83  1  0.12500000  1.00000000  0.54077000  1
  Ce  Ce84  1  -0.00000000  0.25000000  0.45923000  1
  Ce  Ce85  1  0.12500000  0.37500000  0.45923000  1
  Ce  Ce86  1  0.12500000  0.25000000  0.45923000  1
  Ce  Ce87  1  -0.00000000  0.37500000  0.45923000  1
  O  O88  1  0.25000000  0.25000000  0.46829000  1
  O  O89  1  0.16667000  0.41667000  0.46225000  1
  O  O90  1  0.16667000  0.29167000  0.46225000  1
  O  O91  1  0.25000000  0.37500000  0.46829000  1
  O  O92  1  0.12500000  0.37500000  0.46829000  1
  O  O93  1  0.04167000  0.29167000  0.46225000  1
  O  O94  1  0.04167000  0.41667000  0.46225000  1
  O  O95  1  0.12500000  0.25000000  0.46829000  1
  Ce  Ce96  1  0.16667000  0.41667000  0.47131000  1
  Ce  Ce97  1  0.04167000  0.29167000  0.47131000  1
  Ce  Ce98  1  0.04167000  0.41667000  0.47131000  1
  Ce  Ce99  1  0.16667000  0.29167000  0.47131000  1
  O  O100  1  0.16667000  0.41667000  0.48037000  1
  O  O101  1  0.08333000  0.33333000  0.47433000  1
  O  O102  1  0.08333000  0.45833000  0.47433000  1
  O  O103  1  0.16667000  0.29167000  0.48037000  1
  O  O104  1  0.04167000  0.29167000  0.48037000  1
  O  O105  1  0.20833000  0.45833000  0.47433000  1
  O  O106  1  0.20833000  0.33333000  0.47433000  1
  O  O107  1  0.04167000  0.41667000  0.48037000  1
  Ce  Ce108  1  0.08333000  0.33333000  0.48339000  1
  Ce  Ce109  1  0.20833000  0.45833000  0.48339000  1
  Ce  Ce110  1  0.20833000  0.33333000  0.48339000  1
  Ce  Ce111  1  0.08333000  0.45833000  0.48339000  1
  O  O112  1  0.08333000  0.33333000  0.49245000  1
  O  O113  1  0.25000000  0.25000000  0.48641000  1
  O  O114  1  0.25000000  0.37500000  0.48641000  1
  O  O115  1  0.08333000  0.45833000  0.49245000  1
  O  O116  1  0.20833000  0.45833000  0.49245000  1
  O  O117  1  0.12500000  0.37500000  0.48641000  1
  O  O118  1  0.12500000  0.25000000  0.48641000  1
  O  O119  1  0.20833000  0.33333000  0.49245000  1
  Ce  Ce120  1  0.25000000  0.25000000  0.49547000  1
  Ce  Ce121  1  0.12500000  0.37500000  0.49547000  1
  Ce  Ce122  1  0.12500000  0.25000000  0.49547000  1
  Ce  Ce123  1  0.25000000  0.37500000  0.49547000  1
  O  O124  1  0.25000000  0.25000000  0.50453000  1
  O  O125  1  0.16667000  0.41667000  0.49849000  1
  O  O126  1  0.16667000  0.29167000  0.49849000  1
  O  O127  1  0.25000000  0.37500000  0.50453000  1
  O  O128  1  0.12500000  0.37500000  0.50453000  1
  O  O129  1  0.04167000  0.29167000  0.49849000  1
  O  O130  1  0.04167000  0.41667000  0.49849000  1
  O  O131  1  0.12500000  0.25000000  0.50453000  1
  Ce  Ce132  1  0.16667000  0.41667000  0.50755000  1
  Ce  Ce133  1  0.04167000  0.29167000  0.50755000  1
  Ce  Ce134  1  0.04167000  0.41667000  0.50755000  1
  Ce  Ce135  1  0.16667000  0.29167000  0.50755000  1
  O  O136  1  0.16667000  0.41667000  0.51661000  1
  O  O137  1  0.08333000  0.33333000  0.51057000  1
  O  O138  1  0.08333000  0.45833000  0.51057000  1
  O  O139  1  0.16667000  0.29167000  0.51661000  1
  O  O140  1  0.04167000  0.29167000  0.51661000  1
  O  O141  1  0.20833000  0.45833000  0.51057000  1
  O  O142  1  0.20833000  0.33333000  0.51057000  1
  O  O143  1  0.04167000  0.41667000  0.51661000  1
  Ce  Ce144  1  0.08333000  0.33333000  0.51963000  1
  Ce  Ce145  1  0.20833000  0.45833000  0.51963000  1
  Ce  Ce146  1  0.20833000  0.33333000  0.51963000  1
  Ce  Ce147  1  0.08333000  0.45833000  0.51963000  1
  O  O148  1  0.08333000  0.33333000  0.52869000  1
  O  O149  1  0.25000000  0.25000000  0.52265000  1
  O  O150  1  0.25000000  0.37500000  0.52265000  1
  O  O151  1  0.08333000  0.45833000  0.52869000  1
  O  O152  1  0.20833000  0.45833000  0.52869000  1
  O  O153  1  0.12500000  0.37500000  0.52265000  1
  O  O154  1  0.12500000  0.25000000  0.52265000  1
  O  O155  1  0.20833000  0.33333000  0.52869000  1
  Ce  Ce156  1  0.25000000  0.25000000  0.53171000  1
  Ce  Ce157  1  0.12500000  0.37500000  0.53171000  1
  Ce  Ce158  1  0.12500000  0.25000000  0.53171000  1
  Ce  Ce159  1  0.25000000  0.37500000  0.53171000  1
  O  O160  1  0.25000000  0.25000000  0.54077000  1
  O  O161  1  0.16667000  0.41667000  0.53473000  1
  O  O162  1  0.16667000  0.29167000  0.53473000  1
  O  O163  1  0.25000000  0.37500000  0.54077000  1
  O  O164  1  0.12500000  0.37500000  0.54077000  1
  O  O165  1  0.04167000  0.29167000  0.53473000  1
  O  O166  1  0.04167000  0.41667000  0.53473000  1
  O  O167  1  0.12500000  0.25000000  0.54077000  1
  Ce  Ce168  1  -0.00000000  0.50000000  0.45923000  1
  Ce  Ce169  1  0.12500000  0.62500000  0.45923000  1
  Ce  Ce170  1  0.12500000  0.50000000  0.45923000  1
  Ce  Ce171  1  1.00000000  0.62500000  0.45923000  1
  O  O172  1  0.25000000  0.50000000  0.46829000  1
  O  O173  1  0.16667000  0.66667000  0.46225000  1
  O  O174  1  0.16667000  0.54167000  0.46225000  1
  O  O175  1  0.25000000  0.62500000  0.46829000  1
  O  O176  1  0.12500000  0.62500000  0.46829000  1
  O  O177  1  0.04167000  0.54167000  0.46225000  1
  O  O178  1  0.04167000  0.66667000  0.46225000  1
  O  O179  1  0.12500000  0.50000000  0.46829000  1
  Ce  Ce180  1  0.16667000  0.66667000  0.47131000  1
  Ce  Ce181  1  0.04167000  0.54167000  0.47131000  1
  Ce  Ce182  1  0.04167000  0.66667000  0.47131000  1
  Ce  Ce183  1  0.16667000  0.54167000  0.47131000  1
  O  O184  1  0.16667000  0.66667000  0.48037000  1
  O  O185  1  0.08333000  0.58333000  0.47433000  1
  O  O186  1  0.08333000  0.70833000  0.47433000  1
  O  O187  1  0.16667000  0.54167000  0.48037000  1
  O  O188  1  0.04167000  0.54167000  0.48037000  1
  O  O189  1  0.20833000  0.70833000  0.47433000  1
  O  O190  1  0.20833000  0.58333000  0.47433000  1
  O  O191  1  0.04167000  0.66667000  0.48037000  1
  Ce  Ce192  1  0.08333000  0.58333000  0.48339000  1
  Ce  Ce193  1  0.20833000  0.70833000  0.48339000  1
  Ce  Ce194  1  0.20833000  0.58333000  0.48339000  1
  Ce  Ce195  1  0.08333000  0.70833000  0.48339000  1
  O  O196  1  0.08333000  0.58333000  0.49245000  1
  O  O197  1  0.25000000  0.50000000  0.48641000  1
  O  O198  1  0.25000000  0.62500000  0.48641000  1
  O  O199  1  0.08333000  0.70833000  0.49245000  1
  O  O200  1  0.20833000  0.70833000  0.49245000  1
  O  O201  1  0.12500000  0.62500000  0.48641000  1
  O  O202  1  0.12500000  0.50000000  0.48641000  1
  O  O203  1  0.20833000  0.58333000  0.49245000  1
  Ce  Ce204  1  0.25000000  0.50000000  0.49547000  1
  Ce  Ce205  1  0.12500000  0.62500000  0.49547000  1
  Ce  Ce206  1  0.12500000  0.50000000  0.49547000  1
  Ce  Ce207  1  0.25000000  0.62500000  0.49547000  1
  O  O208  1  0.25000000  0.50000000  0.50453000  1
  O  O209  1  0.16667000  0.66667000  0.49849000  1
  O  O210  1  0.16667000  0.54167000  0.49849000  1
  O  O211  1  0.25000000  0.62500000  0.50453000  1
  O  O212  1  0.12500000  0.62500000  0.50453000  1
  O  O213  1  0.04167000  0.54167000  0.49849000  1
  O  O214  1  0.04167000  0.66667000  0.49849000  1
  O  O215  1  0.12500000  0.50000000  0.50453000  1
  Ce  Ce216  1  0.16667000  0.66667000  0.50755000  1
  Ce  Ce217  1  0.04167000  0.54167000  0.50755000  1
  Ce  Ce218  1  0.04167000  0.66667000  0.50755000  1
  Ce  Ce219  1  0.16667000  0.54167000  0.50755000  1
  O  O220  1  0.16667000  0.66667000  0.51661000  1
  O  O221  1  0.08333000  0.58333000  0.51057000  1
  O  O222  1  0.08333000  0.70833000  0.51057000  1
  O  O223  1  0.16667000  0.54167000  0.51661000  1
  O  O224  1  0.04167000  0.54167000  0.51661000  1
  O  O225  1  0.20833000  0.70833000  0.51057000  1
  O  O226  1  0.20833000  0.58333000  0.51057000  1
  O  O227  1  0.04167000  0.66667000  0.51661000  1
  Ce  Ce228  1  0.08333000  0.58333000  0.51963000  1
  Ce  Ce229  1  0.20833000  0.70833000  0.51963000  1
  Ce  Ce230  1  0.20833000  0.58333000  0.51963000  1
  Ce  Ce231  1  0.08333000  0.70833000  0.51963000  1
  O  O232  1  0.08333000  0.58333000  0.52869000  1
  O  O233  1  0.25000000  0.50000000  0.52265000  1
  O  O234  1  0.25000000  0.62500000  0.52265000  1
  O  O235  1  0.08333000  0.70833000  0.52869000  1
  O  O236  1  0.20833000  0.70833000  0.52869000  1
  O  O237  1  0.12500000  0.62500000  0.52265000  1
  O  O238  1  0.12500000  0.50000000  0.52265000  1
  O  O239  1  0.20833000  0.58333000  0.52869000  1
  Ce  Ce240  1  0.25000000  0.50000000  0.53171000  1
  Ce  Ce241  1  0.12500000  0.62500000  0.53171000  1
  Ce  Ce242  1  0.12500000  0.50000000  0.53171000  1
  Ce  Ce243  1  0.25000000  0.62500000  0.53171000  1
  O  O244  1  0.25000000  0.50000000  0.54077000  1
  O  O245  1  0.16667000  0.66667000  0.53473000  1
  O  O246  1  0.16667000  0.54167000  0.53473000  1
  O  O247  1  0.25000000  0.62500000  0.54077000  1
  O  O248  1  0.12500000  0.62500000  0.54077000  1
  O  O249  1  0.04167000  0.54167000  0.53473000  1
  O  O250  1  0.04167000  0.66667000  0.53473000  1
  O  O251  1  0.12500000  0.50000000  0.54077000  1
  Ce  Ce252  1  -0.00000000  0.75000000  0.45923000  1
  Ce  Ce253  1  0.12500000  0.87500000  0.45923000  1
  Ce  Ce254  1  0.12500000  0.75000000  0.45923000  1
  Ce  Ce255  1  0.00000000  0.87500000  0.45923000  1
  O  O256  1  0.25000000  0.75000000  0.46829000  1
  O  O257  1  0.16667000  0.91667000  0.46225000  1
  O  O258  1  0.16667000  0.79167000  0.46225000  1
  O  O259  1  0.25000000  0.87500000  0.46829000  1
  O  O260  1  0.12500000  0.87500000  0.46829000  1
  O  O261  1  0.04167000  0.79167000  0.46225000  1
  O  O262  1  0.04167000  0.91667000  0.46225000  1
  O  O263  1  0.12500000  0.75000000  0.46829000  1
  Ce  Ce264  1  0.16667000  0.91667000  0.47131000  1
  Ce  Ce265  1  0.04167000  0.79167000  0.47131000  1
  Ce  Ce266  1  0.04167000  0.91667000  0.47131000  1
  Ce  Ce267  1  0.16667000  0.79167000  0.47131000  1
  O  O268  1  0.16667000  0.91667000  0.48037000  1
  O  O269  1  0.08333000  0.83333000  0.47433000  1
  O  O270  1  0.08333000  0.95833000  0.47433000  1
  O  O271  1  0.16667000  0.79167000  0.48037000  1
  O  O272  1  0.04167000  0.79167000  0.48037000  1
  O  O273  1  0.20833000  0.95833000  0.47433000  1
  O  O274  1  0.20833000  0.83333000  0.47433000  1
  O  O275  1  0.04167000  0.91667000  0.48037000  1
  Ce  Ce276  1  0.08333000  0.83333000  0.48339000  1
  Ce  Ce277  1  0.20833000  0.95833000  0.48339000  1
  Ce  Ce278  1  0.20833000  0.83333000  0.48339000  1
  Ce  Ce279  1  0.08333000  0.95833000  0.48339000  1
  O  O280  1  0.08333000  0.83333000  0.49245000  1
  O  O281  1  0.25000000  0.75000000  0.48641000  1
  O  O282  1  0.25000000  0.87500000  0.48641000  1
  O  O283  1  0.08333000  0.95833000  0.49245000  1
  O  O284  1  0.20833000  0.95833000  0.49245000  1
  O  O285  1  0.12500000  0.87500000  0.48641000  1
  O  O286  1  0.12500000  0.75000000  0.48641000  1
  O  O287  1  0.20833000  0.83333000  0.49245000  1
  Ce  Ce288  1  0.25000000  0.75000000  0.49547000  1
  Ce  Ce289  1  0.12500000  0.87500000  0.49547000  1
  Ce  Ce290  1  0.12500000  0.75000000  0.49547000  1
  Ce  Ce291  1  0.25000000  0.87500000  0.49547000  1
  O  O292  1  0.25000000  0.75000000  0.50453000  1
  O  O293  1  0.16667000  0.91667000  0.49849000  1
  O  O294  1  0.16667000  0.79167000  0.49849000  1
  O  O295  1  0.25000000  0.87500000  0.50453000  1
  O  O296  1  0.12500000  0.87500000  0.50453000  1
  O  O297  1  0.04167000  0.79167000  0.49849000  1
  O  O298  1  0.04167000  0.91667000  0.49849000  1
  O  O299  1  0.12500000  0.75000000  0.50453000  1
  Ce  Ce300  1  0.16667000  0.91667000  0.50755000  1
  Ce  Ce301  1  0.04167000  0.79167000  0.50755000  1
  Ce  Ce302  1  0.04167000  0.91667000  0.50755000  1
  Ce  Ce303  1  0.16667000  0.79167000  0.50755000  1
  O  O304  1  0.16667000  0.91667000  0.51661000  1
  O  O305  1  0.08333000  0.83333000  0.51057000  1
  O  O306  1  0.08333000  0.95833000  0.51057000  1
  O  O307  1  0.16667000  0.79167000  0.51661000  1
  O  O308  1  0.04167000  0.79167000  0.51661000  1
  O  O309  1  0.20833000  0.95833000  0.51057000  1
  O  O310  1  0.20833000  0.83333000  0.51057000  1
  O  O311  1  0.04167000  0.91667000  0.51661000  1
  Ce  Ce312  1  0.08333000  0.83333000  0.51963000  1
  Ce  Ce313  1  0.20833000  0.95833000  0.51963000  1
  Ce  Ce314  1  0.20833000  0.83333000  0.51963000  1
  Ce  Ce315  1  0.08333000  0.95833000  0.51963000  1
  O  O316  1  0.08333000  0.83333000  0.52869000  1
  O  O317  1  0.25000000  0.75000000  0.52265000  1
  O  O318  1  0.25000000  0.87500000  0.52265000  1
  O  O319  1  0.08333000  0.95833000  0.52869000  1
  O  O320  1  0.20833000  0.95833000  0.52869000  1
  O  O321  1  0.12500000  0.87500000  0.52265000  1
  O  O322  1  0.12500000  0.75000000  0.52265000  1
  O  O323  1  0.20833000  0.83333000  0.52869000  1
  Ce  Ce324  1  0.25000000  0.75000000  0.53171000  1
  Ce  Ce325  1  0.12500000  0.87500000  0.53171000  1
  Ce  Ce326  1  0.12500000  0.75000000  0.53171000  1
  Ce  Ce327  1  0.25000000  0.87500000  0.53171000  1
  O  O328  1  0.25000000  0.75000000  0.54077000  1
  O  O329  1  0.16667000  0.91667000  0.53473000  1
  O  O330  1  0.16667000  0.79167000  0.53473000  1
  O  O331  1  0.25000000  0.87500000  0.54077000  1
  O  O332  1  0.12500000  0.87500000  0.54077000  1
  O  O333  1  0.04167000  0.79167000  0.53473000  1
  O  O334  1  0.04167000  0.91667000  0.53473000  1
  O  O335  1  0.12500000  0.75000000  0.54077000  1
  Ce  Ce336  1  0.25000000  0.00000000  0.45923000  1
  Ce  Ce337  1  0.37500000  0.12500000  0.45923000  1
  Ce  Ce338  1  0.37500000  0.00000000  0.45923000  1
  Ce  Ce339  1  0.25000000  0.12500000  0.45923000  1
  O  O340  1  0.50000000  1.00000000  0.46829000  1
  O  O341  1  0.41667000  0.16667000  0.46225000  1
  O  O342  1  0.41667000  0.04167000  0.46225000  1
  O  O343  1  0.50000000  0.12500000  0.46829000  1
  O  O344  1  0.37500000  0.12500000  0.46829000  1
  O  O345  1  0.29167000  0.04167000  0.46225000  1
  O  O346  1  0.29167000  0.16667000  0.46225000  1
  O  O347  1  0.37500000  1.00000000  0.46829000  1
  Ce  Ce348  1  0.41667000  0.16667000  0.47131000  1
  Ce  Ce349  1  0.29167000  0.04167000  0.47131000  1
  Ce  Ce350  1  0.29167000  0.16667000  0.47131000  1
  Ce  Ce351  1  0.41667000  0.04167000  0.47131000  1
  O  O352  1  0.41667000  0.16667000  0.48037000  1
  O  O353  1  0.33333000  0.08333000  0.47433000  1
  O  O354  1  0.33333000  0.20833000  0.47433000  1
  O  O355  1  0.41667000  0.04167000  0.48037000  1
  O  O356  1  0.29167000  0.04167000  0.48037000  1
  O  O357  1  0.45833000  0.20833000  0.47433000  1
  O  O358  1  0.45833000  0.08333000  0.47433000  1
  O  O359  1  0.29167000  0.16667000  0.48037000  1
  Ce  Ce360  1  0.33333000  0.08333000  0.48339000  1
  Ce  Ce361  1  0.45833000  0.20833000  0.48339000  1
  Ce  Ce362  1  0.45833000  0.08333000  0.48339000  1
  Ce  Ce363  1  0.33333000  0.20833000  0.48339000  1
  O  O364  1  0.33333000  0.08333000  0.49245000  1
  O  O365  1  0.50000000  1.00000000  0.48641000  1
  O  O366  1  0.50000000  0.12500000  0.48641000  1
  O  O367  1  0.33333000  0.20833000  0.49245000  1
  O  O368  1  0.45833000  0.20833000  0.49245000  1
  O  O369  1  0.37500000  0.12500000  0.48641000  1
  O  O370  1  0.37500000  1.00000000  0.48641000  1
  O  O371  1  0.45833000  0.08333000  0.49245000  1
  Ce  Ce372  1  0.50000000  1.00000000  0.49547000  1
  Ce  Ce373  1  0.37500000  0.12500000  0.49547000  1
  Ce  Ce374  1  0.37500000  1.00000000  0.49547000  1
  Ce  Ce375  1  0.50000000  0.12500000  0.49547000  1
  O  O376  1  0.50000000  1.00000000  0.50453000  1
  O  O377  1  0.41667000  0.16667000  0.49849000  1
  O  O378  1  0.41667000  0.04167000  0.49849000  1
  O  O379  1  0.50000000  0.12500000  0.50453000  1
  O  O380  1  0.37500000  0.12500000  0.50453000  1
  O  O381  1  0.29167000  0.04167000  0.49849000  1
  O  O382  1  0.29167000  0.16667000  0.49849000  1
  O  O383  1  0.37500000  1.00000000  0.50453000  1
  Ce  Ce384  1  0.41667000  0.16667000  0.50755000  1
  Ce  Ce385  1  0.29167000  0.04167000  0.50755000  1
  Ce  Ce386  1  0.29167000  0.16667000  0.50755000  1
  Ce  Ce387  1  0.41667000  0.04167000  0.50755000  1
  O  O388  1  0.41667000  0.16667000  0.51661000  1
  O  O389  1  0.33333000  0.08333000  0.51057000  1
  O  O390  1  0.33333000  0.20833000  0.51057000  1
  O  O391  1  0.41667000  0.04167000  0.51661000  1
  O  O392  1  0.29167000  0.04167000  0.51661000  1
  O  O393  1  0.45833000  0.20833000  0.51057000  1
  O  O394  1  0.45833000  0.08333000  0.51057000  1
  O  O395  1  0.29167000  0.16667000  0.51661000  1
  Ce  Ce396  1  0.33333000  0.08333000  0.51963000  1
  Ce  Ce397  1  0.45833000  0.20833000  0.51963000  1
  Ce  Ce398  1  0.45833000  0.08333000  0.51963000  1
  Ce  Ce399  1  0.33333000  0.20833000  0.51963000  1
  O  O400  1  0.33333000  0.08333000  0.52869000  1
  O  O401  1  0.50000000  1.00000000  0.52265000  1
  O  O402  1  0.50000000  0.12500000  0.52265000  1
  O  O403  1  0.33333000  0.20833000  0.52869000  1
  O  O404  1  0.45833000  0.20833000  0.52869000  1
  O  O405  1  0.37500000  0.12500000  0.52265000  1
  O  O406  1  0.37500000  1.00000000  0.52265000  1
  O  O407  1  0.45833000  0.08333000  0.52869000  1
  Ce  Ce408  1  0.50000000  1.00000000  0.53171000  1
  Ce  Ce409  1  0.37500000  0.12500000  0.53171000  1
  Ce  Ce410  1  0.37500000  1.00000000  0.53171000  1
  Ce  Ce411  1  0.50000000  0.12500000  0.53171000  1
  O  O412  1  0.50000000  1.00000000  0.54077000  1
  O  O413  1  0.41667000  0.16667000  0.53473000  1
  O  O414  1  0.41667000  0.04167000  0.53473000  1
  O  O415  1  0.50000000  0.12500000  0.54077000  1
  O  O416  1  0.37500000  0.12500000  0.54077000  1
  O  O417  1  0.29167000  0.04167000  0.53473000  1
  O  O418  1  0.29167000  0.16667000  0.53473000  1
  O  O419  1  0.37500000  1.00000000  0.54077000  1
  Ce  Ce420  1  0.25000000  0.25000000  0.45923000  1
  Ce  Ce421  1  0.37500000  0.37500000  0.45923000  1
  Ce  Ce422  1  0.37500000  0.25000000  0.45923000  1
  Ce  Ce423  1  0.25000000  0.37500000  0.45923000  1
  O  O424  1  0.50000000  0.25000000  0.46829000  1
  O  O425  1  0.41667000  0.41667000  0.46225000  1
  O  O426  1  0.41667000  0.29167000  0.46225000  1
  O  O427  1  0.50000000  0.37500000  0.46829000  1
  O  O428  1  0.37500000  0.37500000  0.46829000  1
  O  O429  1  0.29167000  0.29167000  0.46225000  1
  O  O430  1  0.29167000  0.41667000  0.46225000  1
  O  O431  1  0.37500000  0.25000000  0.46829000  1
  Ce  Ce432  1  0.41667000  0.41667000  0.47131000  1
  Ce  Ce433  1  0.29167000  0.29167000  0.47131000  1
  Ce  Ce434  1  0.29167000  0.41667000  0.47131000  1
  Ce  Ce435  1  0.41667000  0.29167000  0.47131000  1
  O  O436  1  0.41667000  0.41667000  0.48037000  1
  O  O437  1  0.33333000  0.33333000  0.47433000  1
  O  O438  1  0.33333000  0.45833000  0.47433000  1
  O  O439  1  0.41667000  0.29167000  0.48037000  1
  O  O440  1  0.29167000  0.29167000  0.48037000  1
  O  O441  1  0.45833000  0.45833000  0.47433000  1
  O  O442  1  0.45833000  0.33333000  0.47433000  1
  O  O443  1  0.29167000  0.41667000  0.48037000  1
  Ce  Ce444  1  0.33333000  0.33333000  0.48339000  1
  Ce  Ce445  1  0.45833000  0.45833000  0.48339000  1
  Ce  Ce446  1  0.45833000  0.33333000  0.48339000  1
  Ce  Ce447  1  0.33333000  0.45833000  0.48339000  1
  O  O448  1  0.33333000  0.33333000  0.49245000  1
  O  O449  1  0.50000000  0.25000000  0.48641000  1
  O  O450  1  0.50000000  0.37500000  0.48641000  1
  O  O451  1  0.33333000  0.45833000  0.49245000  1
  O  O452  1  0.45833000  0.45833000  0.49245000  1
  O  O453  1  0.37500000  0.37500000  0.48641000  1
  O  O454  1  0.37500000  0.25000000  0.48641000  1
  O  O455  1  0.45833000  0.33333000  0.49245000  1
  Ce  Ce456  1  0.50000000  0.25000000  0.49547000  1
  Ce  Ce457  1  0.37500000  0.37500000  0.49547000  1
  Ce  Ce458  1  0.37500000  0.25000000  0.49547000  1
  Ce  Ce459  1  0.50000000  0.37500000  0.49547000  1
  O  O460  1  0.50000000  0.25000000  0.50453000  1
  O  O461  1  0.41667000  0.41667000  0.49849000  1
  O  O462  1  0.41667000  0.29167000  0.49849000  1
  O  O463  1  0.50000000  0.37500000  0.50453000  1
  O  O464  1  0.37500000  0.37500000  0.50453000  1
  O  O465  1  0.29167000  0.29167000  0.49849000  1
  O  O466  1  0.29167000  0.41667000  0.49849000  1
  O  O467  1  0.37500000  0.25000000  0.50453000  1
  Ce  Ce468  1  0.41667000  0.41667000  0.50755000  1
  Ce  Ce469  1  0.29167000  0.29167000  0.50755000  1
  Ce  Ce470  1  0.29167000  0.41667000  0.50755000  1
  Ce  Ce471  1  0.41667000  0.29167000  0.50755000  1
  O  O472  1  0.41667000  0.41667000  0.51661000  1
  O  O473  1  0.33333000  0.33333000  0.51057000  1
  O  O474  1  0.33333000  0.45833000  0.51057000  1
  O  O475  1  0.41667000  0.29167000  0.51661000  1
  O  O476  1  0.29167000  0.29167000  0.51661000  1
  O  O477  1  0.45833000  0.45833000  0.51057000  1
  O  O478  1  0.45833000  0.33333000  0.51057000  1
  O  O479  1  0.29167000  0.41667000  0.51661000  1
  Ce  Ce480  1  0.33333000  0.33333000  0.51963000  1
  Ce  Ce481  1  0.45833000  0.45833000  0.51963000  1
  Ce  Ce482  1  0.45833000  0.33333000  0.51963000  1
  Ce  Ce483  1  0.33333000  0.45833000  0.51963000  1
  O  O484  1  0.33333000  0.33333000  0.52869000  1
  O  O485  1  0.50000000  0.25000000  0.52265000  1
  O  O486  1  0.50000000  0.37500000  0.52265000  1
  O  O487  1  0.33333000  0.45833000  0.52869000  1
  O  O488  1  0.45833000  0.45833000  0.52869000  1
  O  O489  1  0.37500000  0.37500000  0.52265000  1
  O  O490  1  0.37500000  0.25000000  0.52265000  1
  O  O491  1  0.45833000  0.33333000  0.52869000  1
  Ce  Ce492  1  0.50000000  0.25000000  0.53171000  1
  Ce  Ce493  1  0.37500000  0.37500000  0.53171000  1
  Ce  Ce494  1  0.37500000  0.25000000  0.53171000  1
  Ce  Ce495  1  0.50000000  0.37500000  0.53171000  1
  O  O496  1  0.50000000  0.25000000  0.54077000  1
  O  O497  1  0.41667000  0.41667000  0.53473000  1
  O  O498  1  0.41667000  0.29167000  0.53473000  1
  O  O499  1  0.50000000  0.37500000  0.54077000  1
  O  O500  1  0.37500000  0.37500000  0.54077000  1
  O  O501  1  0.29167000  0.29167000  0.53473000  1
  O  O502  1  0.29167000  0.41667000  0.53473000  1
  O  O503  1  0.37500000  0.25000000  0.54077000  1
  Ce  Ce504  1  0.25000000  0.50000000  0.45923000  1
  Ce  Ce505  1  0.37500000  0.62500000  0.45923000  1
  Ce  Ce506  1  0.37500000  0.50000000  0.45923000  1
  Ce  Ce507  1  0.25000000  0.62500000  0.45923000  1
  O  O508  1  0.50000000  0.50000000  0.46829000  1
  O  O509  1  0.41667000  0.66667000  0.46225000  1
  O  O510  1  0.41667000  0.54167000  0.46225000  1
  O  O511  1  0.50000000  0.62500000  0.46829000  1
  O  O512  1  0.37500000  0.62500000  0.46829000  1
  O  O513  1  0.29167000  0.54167000  0.46225000  1
  O  O514  1  0.29167000  0.66667000  0.46225000  1
  O  O515  1  0.37500000  0.50000000  0.46829000  1
  Ce  Ce516  1  0.41667000  0.66667000  0.47131000  1
  Ce  Ce517  1  0.29167000  0.54167000  0.47131000  1
  Ce  Ce518  1  0.29167000  0.66667000  0.47131000  1
  Ce  Ce519  1  0.41667000  0.54167000  0.47131000  1
  O  O520  1  0.41667000  0.66667000  0.48037000  1
  O  O521  1  0.33333000  0.58333000  0.47433000  1
  O  O522  1  0.33333000  0.70833000  0.47433000  1
  O  O523  1  0.41667000  0.54167000  0.48037000  1
  O  O524  1  0.29167000  0.54167000  0.48037000  1
  O  O525  1  0.45833000  0.70833000  0.47433000  1
  O  O526  1  0.45833000  0.58333000  0.47433000  1
  O  O527  1  0.29167000  0.66667000  0.48037000  1
  Ce  Ce528  1  0.33333000  0.58333000  0.48339000  1
  Ce  Ce529  1  0.45833000  0.70833000  0.48339000  1
  Ce  Ce530  1  0.45833000  0.58333000  0.48339000  1
  Ce  Ce531  1  0.33333000  0.70833000  0.48339000  1
  O  O532  1  0.33333000  0.58333000  0.49245000  1
  O  O533  1  0.50000000  0.50000000  0.48641000  1
  O  O534  1  0.50000000  0.62500000  0.48641000  1
  O  O535  1  0.33333000  0.70833000  0.49245000  1
  O  O536  1  0.45833000  0.70833000  0.49245000  1
  O  O537  1  0.37500000  0.62500000  0.48641000  1
  O  O538  1  0.37500000  0.50000000  0.48641000  1
  O  O539  1  0.45833000  0.58333000  0.49245000  1
  Ce  Ce540  1  0.50000000  0.50000000  0.49547000  1
  Ce  Ce541  1  0.37500000  0.62500000  0.49547000  1
  Ce  Ce542  1  0.37500000  0.50000000  0.49547000  1
  Ce  Ce543  1  0.50000000  0.62500000  0.49547000  1
  O  O544  1  0.50000000  0.50000000  0.76858722  1
  O  O545  1  0.41667000  0.66667000  0.49849000  1
  O  O546  1  0.41667000  0.54167000  0.49849000  1
  O  O547  1  0.50000000  0.62500000  0.50453000  1
  O  O548  1  0.37500000  0.62500000  0.50453000  1
  O  O549  1  0.29167000  0.54167000  0.49849000  1
  O  O550  1  0.29167000  0.66667000  0.49849000  1
  O  O551  1  0.37500000  0.50000000  0.50453000  1
  Ce  Ce552  1  0.41667000  0.66667000  0.50755000  1
  Ce  Ce553  1  0.29167000  0.54167000  0.50755000  1
  Ce  Ce554  1  0.29167000  0.66667000  0.50755000  1
  Ce  Ce555  1  0.41667000  0.54167000  0.50755000  1
  O  O556  1  0.41667000  0.66667000  0.51661000  1
  O  O557  1  0.33333000  0.58333000  0.51057000  1
  O  O558  1  0.33333000  0.70833000  0.51057000  1
  O  O559  1  0.41667000  0.54167000  0.51661000  1
  O  O560  1  0.29167000  0.54167000  0.51661000  1
  O  O561  1  0.45833000  0.70833000  0.51057000  1
  O  O562  1  0.45833000  0.58333000  0.51057000  1
  O  O563  1  0.29167000  0.66667000  0.51661000  1
  Ce  Ce564  1  0.33333000  0.58333000  0.51963000  1
  Ce  Ce565  1  0.45833000  0.70833000  0.51963000  1
  Ce  Ce566  1  0.45833000  0.58333000  0.51963000  1
  Ce  Ce567  1  0.33333000  0.70833000  0.51963000  1
  O  O568  1  0.33333000  0.58333000  0.52869000  1
  O  O569  1  0.50000000  0.50000000  0.52265000  1
  O  O570  1  0.50000000  0.62500000  0.52265000  1
  O  O571  1  0.33333000  0.70833000  0.52869000  1
  O  O572  1  0.45833000  0.70833000  0.52869000  1
  O  O573  1  0.37500000  0.62500000  0.52265000  1
  O  O574  1  0.37500000  0.50000000  0.52265000  1
  O  O575  1  0.45833000  0.58333000  0.52869000  1
  Ce  Ce576  1  0.50000000  0.50000000  0.53171000  1
  Ce  Ce577  1  0.37500000  0.62500000  0.53171000  1
  Ce  Ce578  1  0.37500000  0.50000000  0.53171000  1
  Ce  Ce579  1  0.50000000  0.62500000  0.53171000  1
  O  O580  1  0.50000000  0.50000000  0.54077000  1
  O  O581  1  0.41667000  0.66667000  0.53473000  1
  O  O582  1  0.41667000  0.54167000  0.53473000  1
  O  O583  1  0.50000000  0.62500000  0.54077000  1
  O  O584  1  0.37500000  0.62500000  0.54077000  1
  O  O585  1  0.29167000  0.54167000  0.53473000  1
  O  O586  1  0.29167000  0.66667000  0.53473000  1
  O  O587  1  0.37500000  0.50000000  0.54077000  1
  Ce  Ce588  1  0.25000000  0.75000000  0.45923000  1
  Ce  Ce589  1  0.37500000  0.87500000  0.45923000  1
  Ce  Ce590  1  0.37500000  0.75000000  0.45923000  1
  Ce  Ce591  1  0.25000000  0.87500000  0.45923000  1
  O  O592  1  0.50000000  0.75000000  0.46829000  1
  O  O593  1  0.41667000  0.91667000  0.46225000  1
  O  O594  1  0.41667000  0.79167000  0.46225000  1
  O  O595  1  0.50000000  0.87500000  0.46829000  1
  O  O596  1  0.37500000  0.87500000  0.46829000  1
  O  O597  1  0.29167000  0.79167000  0.46225000  1
  O  O598  1  0.29167000  0.91667000  0.46225000  1
  O  O599  1  0.37500000  0.75000000  0.46829000  1
  Ce  Ce600  1  0.41667000  0.91667000  0.47131000  1
  Ce  Ce601  1  0.29167000  0.79167000  0.47131000  1
  Ce  Ce602  1  0.29167000  0.91667000  0.47131000  1
  Ce  Ce603  1  0.41667000  0.79167000  0.47131000  1
  O  O604  1  0.41667000  0.91667000  0.48037000  1
  O  O605  1  0.33333000  0.83333000  0.47433000  1
  O  O606  1  0.33333000  0.95833000  0.47433000  1
  O  O607  1  0.41667000  0.79167000  0.48037000  1
  O  O608  1  0.29167000  0.79167000  0.48037000  1
  O  O609  1  0.45833000  0.95833000  0.47433000  1
  O  O610  1  0.45833000  0.83333000  0.47433000  1
  O  O611  1  0.29167000  0.91667000  0.48037000  1
  Ce  Ce612  1  0.33333000  0.83333000  0.48339000  1
  Ce  Ce613  1  0.45833000  0.95833000  0.48339000  1
  Ce  Ce614  1  0.45833000  0.83333000  0.48339000  1
  Ce  Ce615  1  0.33333000  0.95833000  0.48339000  1
  O  O616  1  0.33333000  0.83333000  0.49245000  1
  O  O617  1  0.50000000  0.75000000  0.48641000  1
  O  O618  1  0.50000000  0.87500000  0.48641000  1
  O  O619  1  0.33333000  0.95833000  0.49245000  1
  O  O620  1  0.45833000  0.95833000  0.49245000  1
  O  O621  1  0.37500000  0.87500000  0.48641000  1
  O  O622  1  0.37500000  0.75000000  0.48641000  1
  O  O623  1  0.45833000  0.83333000  0.49245000  1
  Ce  Ce624  1  0.50000000  0.75000000  0.49547000  1
  Ce  Ce625  1  0.37500000  0.87500000  0.49547000  1
  Ce  Ce626  1  0.37500000  0.75000000  0.49547000  1
  Ce  Ce627  1  0.50000000  0.87500000  0.49547000  1
  O  O628  1  0.50000000  0.75000000  0.50453000  1
  O  O629  1  0.41667000  0.91667000  0.49849000  1
  O  O630  1  0.41667000  0.79167000  0.49849000  1
  O  O631  1  0.50000000  0.87500000  0.50453000  1
  O  O632  1  0.37500000  0.87500000  0.50453000  1
  O  O633  1  0.29167000  0.79167000  0.49849000  1
  O  O634  1  0.29167000  0.91667000  0.49849000  1
  O  O635  1  0.37500000  0.75000000  0.50453000  1
  Ce  Ce636  1  0.41667000  0.91667000  0.50755000  1
  Ce  Ce637  1  0.29167000  0.79167000  0.50755000  1
  Ce  Ce638  1  0.29167000  0.91667000  0.50755000  1
  Ce  Ce639  1  0.41667000  0.79167000  0.50755000  1
  O  O640  1  0.41667000  0.91667000  0.51661000  1
  O  O641  1  0.33333000  0.83333000  0.51057000  1
  O  O642  1  0.33333000  0.95833000  0.51057000  1
  O  O643  1  0.41667000  0.79167000  0.51661000  1
  O  O644  1  0.29167000  0.79167000  0.51661000  1
  O  O645  1  0.45833000  0.95833000  0.51057000  1
  O  O646  1  0.45833000  0.83333000  0.51057000  1
  O  O647  1  0.29167000  0.91667000  0.51661000  1
  Ce  Ce648  1  0.33333000  0.83333000  0.51963000  1
  Ce  Ce649  1  0.45833000  0.95833000  0.51963000  1
  Ce  Ce650  1  0.45833000  0.83333000  0.51963000  1
  Ce  Ce651  1  0.33333000  0.95833000  0.51963000  1
  O  O652  1  0.33333000  0.83333000  0.52869000  1
  O  O653  1  0.50000000  0.75000000  0.52265000  1
  O  O654  1  0.50000000  0.87500000  0.52265000  1
  O  O655  1  0.33333000  0.95833000  0.52869000  1
  O  O656  1  0.45833000  0.95833000  0.52869000  1
  O  O657  1  0.37500000  0.87500000  0.52265000  1
  O  O658  1  0.37500000  0.75000000  0.52265000  1
  O  O659  1  0.45833000  0.83333000  0.52869000  1
  Ce  Ce660  1  0.50000000  0.75000000  0.53171000  1
  Ce  Ce661  1  0.37500000  0.87500000  0.53171000  1
  Ce  Ce662  1  0.37500000  0.75000000  0.53171000  1
  Ce  Ce663  1  0.50000000  0.87500000  0.53171000  1
  O  O664  1  0.50000000  0.75000000  0.54077000  1
  O  O665  1  0.41667000  0.91667000  0.53473000  1
  O  O666  1  0.41667000  0.79167000  0.53473000  1
  O  O667  1  0.50000000  0.87500000  0.54077000  1
  O  O668  1  0.37500000  0.87500000  0.54077000  1
  O  O669  1  0.29167000  0.79167000  0.53473000  1
  O  O670  1  0.29167000  0.91667000  0.53473000  1
  O  O671  1  0.37500000  0.75000000  0.54077000  1
  Ce  Ce672  1  0.50000000  0.00000000  0.45923000  1
  Ce  Ce673  1  0.62500000  0.12500000  0.45923000  1
  Ce  Ce674  1  0.62500000  0.00000000  0.45923000  1
  Ce  Ce675  1  0.50000000  0.12500000  0.45923000  1
  O  O676  1  0.75000000  1.00000000  0.46829000  1
  O  O677  1  0.66667000  0.16667000  0.46225000  1
  O  O678  1  0.66667000  0.04167000  0.46225000  1
  O  O679  1  0.75000000  0.12500000  0.46829000  1
  O  O680  1  0.62500000  0.12500000  0.46829000  1
  O  O681  1  0.54167000  0.04167000  0.46225000  1
  O  O682  1  0.54167000  0.16667000  0.46225000  1
  O  O683  1  0.62500000  1.00000000  0.46829000  1
  Ce  Ce684  1  0.66667000  0.16667000  0.47131000  1
  Ce  Ce685  1  0.54167000  0.04167000  0.47131000  1
  Ce  Ce686  1  0.54167000  0.16667000  0.47131000  1
  Ce  Ce687  1  0.66667000  0.04167000  0.47131000  1
  O  O688  1  0.66667000  0.16667000  0.48037000  1
  O  O689  1  0.58333000  0.08333000  0.47433000  1
  O  O690  1  0.58333000  0.20833000  0.47433000  1
  O  O691  1  0.66667000  0.04167000  0.48037000  1
  O  O692  1  0.54167000  0.04167000  0.48037000  1
  O  O693  1  0.70833000  0.20833000  0.47433000  1
  O  O694  1  0.70833000  0.08333000  0.47433000  1
  O  O695  1  0.54167000  0.16667000  0.48037000  1
  Ce  Ce696  1  0.58333000  0.08333000  0.48339000  1
  Ce  Ce697  1  0.70833000  0.20833000  0.48339000  1
  Ce  Ce698  1  0.70833000  0.08333000  0.48339000  1
  Ce  Ce699  1  0.58333000  0.20833000  0.48339000  1
  O  O700  1  0.58333000  0.08333000  0.49245000  1
  O  O701  1  0.75000000  1.00000000  0.48641000  1
  O  O702  1  0.75000000  0.12500000  0.48641000  1
  O  O703  1  0.58333000  0.20833000  0.49245000  1
  O  O704  1  0.70833000  0.20833000  0.49245000  1
  O  O705  1  0.62500000  0.12500000  0.48641000  1
  O  O706  1  0.62500000  1.00000000  0.48641000  1
  O  O707  1  0.70833000  0.08333000  0.49245000  1
  Ce  Ce708  1  0.75000000  1.00000000  0.49547000  1
  Ce  Ce709  1  0.62500000  0.12500000  0.49547000  1
  Ce  Ce710  1  0.62500000  1.00000000  0.49547000  1
  Ce  Ce711  1  0.75000000  0.12500000  0.49547000  1
  O  O712  1  0.75000000  1.00000000  0.50453000  1
  O  O713  1  0.66667000  0.16667000  0.49849000  1
  O  O714  1  0.66667000  0.04167000  0.49849000  1
  O  O715  1  0.75000000  0.12500000  0.50453000  1
  O  O716  1  0.62500000  0.12500000  0.50453000  1
  O  O717  1  0.54167000  0.04167000  0.49849000  1
  O  O718  1  0.54167000  0.16667000  0.49849000  1
  O  O719  1  0.62500000  1.00000000  0.50453000  1
  Ce  Ce720  1  0.66667000  0.16667000  0.50755000  1
  Ce  Ce721  1  0.54167000  0.04167000  0.50755000  1
  Ce  Ce722  1  0.54167000  0.16667000  0.50755000  1
  Ce  Ce723  1  0.66667000  0.04167000  0.50755000  1
  O  O724  1  0.66667000  0.16667000  0.51661000  1
  O  O725  1  0.58333000  0.08333000  0.51057000  1
  O  O726  1  0.58333000  0.20833000  0.51057000  1
  O  O727  1  0.66667000  0.04167000  0.51661000  1
  O  O728  1  0.54167000  0.04167000  0.51661000  1
  O  O729  1  0.70833000  0.20833000  0.51057000  1
  O  O730  1  0.70833000  0.08333000  0.51057000  1
  O  O731  1  0.54167000  0.16667000  0.51661000  1
  Ce  Ce732  1  0.58333000  0.08333000  0.51963000  1
  Ce  Ce733  1  0.70833000  0.20833000  0.51963000  1
  Ce  Ce734  1  0.70833000  0.08333000  0.51963000  1
  Ce  Ce735  1  0.58333000  0.20833000  0.51963000  1
  O  O736  1  0.58333000  0.08333000  0.52869000  1
  O  O737  1  0.75000000  1.00000000  0.52265000  1
  O  O738  1  0.75000000  0.12500000  0.52265000  1
  O  O739  1  0.58333000  0.20833000  0.52869000  1
  O  O740  1  0.70833000  0.20833000  0.52869000  1
  O  O741  1  0.62500000  0.12500000  0.52265000  1
  O  O742  1  0.62500000  1.00000000  0.52265000  1
  O  O743  1  0.70833000  0.08333000  0.52869000  1
  Ce  Ce744  1  0.75000000  1.00000000  0.53171000  1
  Ce  Ce745  1  0.62500000  0.12500000  0.53171000  1
  Ce  Ce746  1  0.62500000  1.00000000  0.53171000  1
  Ce  Ce747  1  0.75000000  0.12500000  0.53171000  1
  O  O748  1  0.75000000  1.00000000  0.54077000  1
  O  O749  1  0.66667000  0.16667000  0.53473000  1
  O  O750  1  0.66667000  0.04167000  0.53473000  1
  O  O751  1  0.75000000  0.12500000  0.54077000  1
  O  O752  1  0.62500000  0.12500000  0.54077000  1
  O  O753  1  0.54167000  0.04167000  0.53473000  1
  O  O754  1  0.54167000  0.16667000  0.53473000  1
  O  O755  1  0.62500000  1.00000000  0.54077000  1
  Ce  Ce756  1  0.50000000  0.25000000  0.45923000  1
  Ce  Ce757  1  0.62500000  0.37500000  0.45923000  1
  Ce  Ce758  1  0.62500000  0.25000000  0.45923000  1
  Ce  Ce759  1  0.50000000  0.37500000  0.45923000  1
  O  O760  1  0.75000000  0.25000000  0.46829000  1
  O  O761  1  0.66667000  0.41667000  0.46225000  1
  O  O762  1  0.66667000  0.29167000  0.46225000  1
  O  O763  1  0.75000000  0.37500000  0.46829000  1
  O  O764  1  0.62500000  0.37500000  0.46829000  1
  O  O765  1  0.54167000  0.29167000  0.46225000  1
  O  O766  1  0.54167000  0.41667000  0.46225000  1
  O  O767  1  0.62500000  0.25000000  0.46829000  1
  Ce  Ce768  1  0.66667000  0.41667000  0.47131000  1
  Ce  Ce769  1  0.54167000  0.29167000  0.47131000  1
  Ce  Ce770  1  0.54167000  0.41667000  0.47131000  1
  Ce  Ce771  1  0.66667000  0.29167000  0.47131000  1
  O  O772  1  0.66667000  0.41667000  0.48037000  1
  O  O773  1  0.58333000  0.33333000  0.47433000  1
  O  O774  1  0.58333000  0.45833000  0.47433000  1
  O  O775  1  0.66667000  0.29167000  0.48037000  1
  O  O776  1  0.54167000  0.29167000  0.48037000  1
  O  O777  1  0.70833000  0.45833000  0.47433000  1
  O  O778  1  0.70833000  0.33333000  0.47433000  1
  O  O779  1  0.54167000  0.41667000  0.48037000  1
  Ce  Ce780  1  0.58333000  0.33333000  0.48339000  1
  Ce  Ce781  1  0.70833000  0.45833000  0.48339000  1
  Ce  Ce782  1  0.70833000  0.33333000  0.48339000  1
  Ce  Ce783  1  0.58333000  0.45833000  0.48339000  1
  O  O784  1  0.58333000  0.33333000  0.49245000  1
  O  O785  1  0.75000000  0.25000000  0.48641000  1
  O  O786  1  0.75000000  0.37500000  0.48641000  1
  O  O787  1  0.58333000  0.45833000  0.49245000  1
  O  O788  1  0.70833000  0.45833000  0.49245000  1
  O  O789  1  0.62500000  0.37500000  0.48641000  1
  O  O790  1  0.62500000  0.25000000  0.48641000  1
  O  O791  1  0.70833000  0.33333000  0.49245000  1
  Ce  Ce792  1  0.75000000  0.25000000  0.49547000  1
  Ce  Ce793  1  0.62500000  0.37500000  0.49547000  1
  Ce  Ce794  1  0.62500000  0.25000000  0.49547000  1
  Ce  Ce795  1  0.75000000  0.37500000  0.49547000  1
  O  O796  1  0.75000000  0.25000000  0.50453000  1
  O  O797  1  0.66667000  0.41667000  0.49849000  1
  O  O798  1  0.66667000  0.29167000  0.49849000  1
  O  O799  1  0.75000000  0.37500000  0.50453000  1
  O  O800  1  0.62500000  0.37500000  0.50453000  1
  O  O801  1  0.54167000  0.29167000  0.49849000  1
  O  O802  1  0.54167000  0.41667000  0.49849000  1
  O  O803  1  0.62500000  0.25000000  0.50453000  1
  Ce  Ce804  1  0.66667000  0.41667000  0.50755000  1
  Ce  Ce805  1  0.54167000  0.29167000  0.50755000  1
  Ce  Ce806  1  0.54167000  0.41667000  0.50755000  1
  Ce  Ce807  1  0.66667000  0.29167000  0.50755000  1
  O  O808  1  0.66667000  0.41667000  0.51661000  1
  O  O809  1  0.58333000  0.33333000  0.51057000  1
  O  O810  1  0.58333000  0.45833000  0.51057000  1
  O  O811  1  0.66667000  0.29167000  0.51661000  1
  O  O812  1  0.54167000  0.29167000  0.51661000  1
  O  O813  1  0.70833000  0.45833000  0.51057000  1
  O  O814  1  0.70833000  0.33333000  0.51057000  1
  O  O815  1  0.54167000  0.41667000  0.51661000  1
  Ce  Ce816  1  0.58333000  0.33333000  0.51963000  1
  Ce  Ce817  1  0.70833000  0.45833000  0.51963000  1
  Ce  Ce818  1  0.70833000  0.33333000  0.51963000  1
  Ce  Ce819  1  0.58333000  0.45833000  0.51963000  1
  O  O820  1  0.58333000  0.33333000  0.52869000  1
  O  O821  1  0.75000000  0.25000000  0.52265000  1
  O  O822  1  0.75000000  0.37500000  0.52265000  1
  O  O823  1  0.58333000  0.45833000  0.52869000  1
  O  O824  1  0.70833000  0.45833000  0.52869000  1
  O  O825  1  0.62500000  0.37500000  0.52265000  1
  O  O826  1  0.62500000  0.25000000  0.52265000  1
  O  O827  1  0.70833000  0.33333000  0.52869000  1
  Ce  Ce828  1  0.75000000  0.25000000  0.53171000  1
  Ce  Ce829  1  0.62500000  0.37500000  0.53171000  1
  Ce  Ce830  1  0.62500000  0.25000000  0.53171000  1
  Ce  Ce831  1  0.75000000  0.37500000  0.53171000  1
  O  O832  1  0.75000000  0.25000000  0.54077000  1
  O  O833  1  0.66667000  0.41667000  0.53473000  1
  O  O834  1  0.66667000  0.29167000  0.53473000  1
  O  O835  1  0.75000000  0.37500000  0.54077000  1
  O  O836  1  0.62500000  0.37500000  0.54077000  1
  O  O837  1  0.54167000  0.29167000  0.53473000  1
  O  O838  1  0.54167000  0.41667000  0.53473000  1
  O  O839  1  0.62500000  0.25000000  0.54077000  1
  Ce  Ce840  1  0.50000000  0.50000000  0.45923000  1
  Ce  Ce841  1  0.62500000  0.62500000  0.45923000  1
  Ce  Ce842  1  0.62500000  0.50000000  0.45923000  1
  Ce  Ce843  1  0.50000000  0.62500000  0.45923000  1
  O  O844  1  0.75000000  0.50000000  0.46829000  1
  O  O845  1  0.66667000  0.66667000  0.46225000  1
  O  O846  1  0.66667000  0.54167000  0.46225000  1
  O  O847  1  0.75000000  0.62500000  0.46829000  1
  O  O848  1  0.62500000  0.62500000  0.46829000  1
  O  O849  1  0.54167000  0.54167000  0.46225000  1
  O  O850  1  0.54167000  0.66667000  0.46225000  1
  O  O851  1  0.62500000  0.50000000  0.46829000  1
  Ce  Ce852  1  0.66667000  0.66667000  0.47131000  1
  Ce  Ce853  1  0.54167000  0.54167000  0.47131000  1
  Ce  Ce854  1  0.54167000  0.66667000  0.47131000  1
  Ce  Ce855  1  0.66667000  0.54167000  0.47131000  1
  O  O856  1  0.66667000  0.66667000  0.48037000  1
  O  O857  1  0.58333000  0.58333000  0.47433000  1
  O  O858  1  0.58333000  0.70833000  0.47433000  1
  O  O859  1  0.66667000  0.54167000  0.48037000  1
  O  O860  1  0.54167000  0.54167000  0.48037000  1
  O  O861  1  0.70833000  0.70833000  0.47433000  1
  O  O862  1  0.70833000  0.58333000  0.47433000  1
  O  O863  1  0.54167000  0.66667000  0.48037000  1
  Ce  Ce864  1  0.58333000  0.58333000  0.48339000  1
  Ce  Ce865  1  0.70833000  0.70833000  0.48339000  1
  Ce  Ce866  1  0.70833000  0.58333000  0.48339000  1
  Ce  Ce867  1  0.58333000  0.70833000  0.48339000  1
  O  O868  1  0.58333000  0.58333000  0.49245000  1
  O  O869  1  0.75000000  0.50000000  0.48641000  1
  O  O870  1  0.75000000  0.62500000  0.48641000  1
  O  O871  1  0.58333000  0.70833000  0.49245000  1
  O  O872  1  0.70833000  0.70833000  0.49245000  1
  O  O873  1  0.62500000  0.62500000  0.48641000  1
  O  O874  1  0.62500000  0.50000000  0.48641000  1
  O  O875  1  0.70833000  0.58333000  0.49245000  1
  Ce  Ce876  1  0.75000000  0.50000000  0.49547000  1
  Ce  Ce877  1  0.62500000  0.62500000  0.49547000  1
  Ce  Ce878  1  0.62500000  0.50000000  0.49547000  1
  Ce  Ce879  1  0.75000000  0.62500000  0.49547000  1
  O  O880  1  0.75000000  0.50000000  0.50453000  1
  O  O881  1  0.66667000  0.66667000  0.49849000  1
  O  O882  1  0.66667000  0.54167000  0.49849000  1
  O  O883  1  0.75000000  0.62500000  0.50453000  1
  O  O884  1  0.62500000  0.62500000  0.50453000  1
  O  O885  1  0.54167000  0.54167000  0.49849000  1
  O  O886  1  0.54167000  0.66667000  0.49849000  1
  O  O887  1  0.62500000  0.50000000  0.50453000  1
  Ce  Ce888  1  0.66667000  0.66667000  0.50755000  1
  Ce  Ce889  1  0.54167000  0.54167000  0.50755000  1
  Ce  Ce890  1  0.54167000  0.66667000  0.50755000  1
  Ce  Ce891  1  0.66667000  0.54167000  0.50755000  1
  O  O892  1  0.66667000  0.66667000  0.51661000  1
  O  O893  1  0.58333000  0.58333000  0.51057000  1
  O  O894  1  0.58333000  0.70833000  0.51057000  1
  O  O895  1  0.66667000  0.54167000  0.51661000  1
  O  O896  1  0.54167000  0.54167000  0.51661000  1
  O  O897  1  0.70833000  0.70833000  0.51057000  1
  O  O898  1  0.70833000  0.58333000  0.51057000  1
  O  O899  1  0.54167000  0.66667000  0.51661000  1
  Ce  Ce900  1  0.58333000  0.58333000  0.51963000  1
  Ce  Ce901  1  0.70833000  0.70833000  0.51963000  1
  Ce  Ce902  1  0.70833000  0.58333000  0.51963000  1
  Ce  Ce903  1  0.58333000  0.70833000  0.51963000  1
  O  O904  1  0.58333000  0.58333000  0.52869000  1
  O  O905  1  0.75000000  0.50000000  0.52265000  1
  O  O906  1  0.75000000  0.62500000  0.52265000  1
  O  O907  1  0.58333000  0.70833000  0.52869000  1
  O  O908  1  0.70833000  0.70833000  0.52869000  1
  O  O909  1  0.62500000  0.62500000  0.52265000  1
  O  O910  1  0.62500000  0.50000000  0.52265000  1
  O  O911  1  0.70833000  0.58333000  0.52869000  1
  Ce  Ce912  1  0.75000000  0.50000000  0.53171000  1
  Ce  Ce913  1  0.62500000  0.62500000  0.53171000  1
  Ce  Ce914  1  0.62500000  0.50000000  0.53171000  1
  Ce  Ce915  1  0.75000000  0.62500000  0.53171000  1
  O  O916  1  0.75000000  0.50000000  0.54077000  1
  O  O917  1  0.66667000  0.66667000  0.53473000  1
  O  O918  1  0.66667000  0.54167000  0.53473000  1
  O  O919  1  0.75000000  0.62500000  0.54077000  1
  O  O920  1  0.62500000  0.62500000  0.54077000  1
  O  O921  1  0.54167000  0.54167000  0.53473000  1
  O  O922  1  0.54167000  0.66667000  0.53473000  1
  O  O923  1  0.62500000  0.50000000  0.54077000  1
  Ce  Ce924  1  0.50000000  0.75000000  0.45923000  1
  Ce  Ce925  1  0.62500000  0.87500000  0.45923000  1
  Ce  Ce926  1  0.62500000  0.75000000  0.45923000  1
  Ce  Ce927  1  0.50000000  0.87500000  0.45923000  1
  O  O928  1  0.75000000  0.75000000  0.46829000  1
  O  O929  1  0.66667000  0.91667000  0.46225000  1
  O  O930  1  0.66667000  0.79167000  0.46225000  1
  O  O931  1  0.75000000  0.87500000  0.46829000  1
  O  O932  1  0.62500000  0.87500000  0.46829000  1
  O  O933  1  0.54167000  0.79167000  0.46225000  1
  O  O934  1  0.54167000  0.91667000  0.46225000  1
  O  O935  1  0.62500000  0.75000000  0.46829000  1
  Ce  Ce936  1  0.66667000  0.91667000  0.47131000  1
  Ce  Ce937  1  0.54167000  0.79167000  0.47131000  1
  Ce  Ce938  1  0.54167000  0.91667000  0.47131000  1
  Ce  Ce939  1  0.66667000  0.79167000  0.47131000  1
  O  O940  1  0.66667000  0.91667000  0.48037000  1
  O  O941  1  0.58333000  0.83333000  0.47433000  1
  O  O942  1  0.58333000  0.95833000  0.47433000  1
  O  O943  1  0.66667000  0.79167000  0.48037000  1
  O  O944  1  0.54167000  0.79167000  0.48037000  1
  O  O945  1  0.70833000  0.95833000  0.47433000  1
  O  O946  1  0.70833000  0.83333000  0.47433000  1
  O  O947  1  0.54167000  0.91667000  0.48037000  1
  Ce  Ce948  1  0.58333000  0.83333000  0.48339000  1
  Ce  Ce949  1  0.70833000  0.95833000  0.48339000  1
  Ce  Ce950  1  0.70833000  0.83333000  0.48339000  1
  Ce  Ce951  1  0.58333000  0.95833000  0.48339000  1
  O  O952  1  0.58333000  0.83333000  0.49245000  1
  O  O953  1  0.75000000  0.75000000  0.48641000  1
  O  O954  1  0.75000000  0.87500000  0.48641000  1
  O  O955  1  0.58333000  0.95833000  0.49245000  1
  O  O956  1  0.70833000  0.95833000  0.49245000  1
  O  O957  1  0.62500000  0.87500000  0.48641000  1
  O  O958  1  0.62500000  0.75000000  0.48641000  1
  O  O959  1  0.70833000  0.83333000  0.49245000  1
  Ce  Ce960  1  0.75000000  0.75000000  0.49547000  1
  Ce  Ce961  1  0.62500000  0.87500000  0.49547000  1
  Ce  Ce962  1  0.62500000  0.75000000  0.49547000  1
  Ce  Ce963  1  0.75000000  0.87500000  0.49547000  1
  O  O964  1  0.75000000  0.75000000  0.50453000  1
  O  O965  1  0.66667000  0.91667000  0.49849000  1
  O  O966  1  0.66667000  0.79167000  0.49849000  1
  O  O967  1  0.75000000  0.87500000  0.50453000  1
  O  O968  1  0.62500000  0.87500000  0.50453000  1
  O  O969  1  0.54167000  0.79167000  0.49849000  1
  O  O970  1  0.54167000  0.91667000  0.49849000  1
  O  O971  1  0.62500000  0.75000000  0.50453000  1
  Ce  Ce972  1  0.66667000  0.91667000  0.50755000  1
  Ce  Ce973  1  0.54167000  0.79167000  0.50755000  1
  Ce  Ce974  1  0.54167000  0.91667000  0.50755000  1
  Ce  Ce975  1  0.66667000  0.79167000  0.50755000  1
  O  O976  1  0.66667000  0.91667000  0.51661000  1
  O  O977  1  0.58333000  0.83333000  0.51057000  1
  O  O978  1  0.58333000  0.95833000  0.51057000  1
  O  O979  1  0.66667000  0.79167000  0.51661000  1
  O  O980  1  0.54167000  0.79167000  0.51661000  1
  O  O981  1  0.70833000  0.95833000  0.51057000  1
  O  O982  1  0.70833000  0.83333000  0.51057000  1
  O  O983  1  0.54167000  0.91667000  0.51661000  1
  Ce  Ce984  1  0.58333000  0.83333000  0.51963000  1
  Ce  Ce985  1  0.70833000  0.95833000  0.51963000  1
  Ce  Ce986  1  0.70833000  0.83333000  0.51963000  1
  Ce  Ce987  1  0.58333000  0.95833000  0.51963000  1
  O  O988  1  0.58333000  0.83333000  0.52869000  1
  O  O989  1  0.75000000  0.75000000  0.52265000  1
  O  O990  1  0.75000000  0.87500000  0.52265000  1
  O  O991  1  0.58333000  0.95833000  0.52869000  1
  O  O992  1  0.70833000  0.95833000  0.52869000  1
  O  O993  1  0.62500000  0.87500000  0.52265000  1
  O  O994  1  0.62500000  0.75000000  0.52265000  1
  O  O995  1  0.70833000  0.83333000  0.52869000  1
  Ce  Ce996  1  0.75000000  0.75000000  0.53171000  1
  Ce  Ce997  1  0.62500000  0.87500000  0.53171000  1
  Ce  Ce998  1  0.62500000  0.75000000  0.53171000  1
  Ce  Ce999  1  0.75000000  0.87500000  0.53171000  1
  O  O1000  1  0.75000000  0.75000000  0.54077000  1
  O  O1001  1  0.66667000  0.91667000  0.53473000  1
  O  O1002  1  0.66667000  0.79167000  0.53473000  1
  O  O1003  1  0.75000000  0.87500000  0.54077000  1
  O  O1004  1  0.62500000  0.87500000  0.54077000  1
  O  O1005  1  0.54167000  0.79167000  0.53473000  1
  O  O1006  1  0.54167000  0.91667000  0.53473000  1
  O  O1007  1  0.62500000  0.75000000  0.54077000  1
  Ce  Ce1008  1  0.75000000  0.00000000  0.45923000  1
  Ce  Ce1009  1  0.87500000  0.12500000  0.45923000  1
  Ce  Ce1010  1  0.87500000  0.00000000  0.45923000  1
  Ce  Ce1011  1  0.75000000  0.12500000  0.45923000  1
  O  O1012  1  0.00000000  1.00000000  0.46829000  1
  O  O1013  1  0.91667000  0.16667000  0.46225000  1
  O  O1014  1  0.91667000  0.04167000  0.46225000  1
  O  O1015  1  -0.00000000  0.12500000  0.46829000  1
  O  O1016  1  0.87500000  0.12500000  0.46829000  1
  O  O1017  1  0.79167000  0.04167000  0.46225000  1
  O  O1018  1  0.79167000  0.16667000  0.46225000  1
  O  O1019  1  0.87500000  1.00000000  0.46829000  1
  Ce  Ce1020  1  0.91667000  0.16667000  0.47131000  1
  Ce  Ce1021  1  0.79167000  0.04167000  0.47131000  1
  Ce  Ce1022  1  0.79167000  0.16667000  0.47131000  1
  Ce  Ce1023  1  0.91667000  0.04167000  0.47131000  1
  O  O1024  1  0.91667000  0.16667000  0.48037000  1
  O  O1025  1  0.83333000  0.08333000  0.47433000  1
  O  O1026  1  0.83333000  0.20833000  0.47433000  1
  O  O1027  1  0.91667000  0.04167000  0.48037000  1
  O  O1028  1  0.79167000  0.04167000  0.48037000  1
  O  O1029  1  0.95833000  0.20833000  0.47433000  1
  O  O1030  1  0.95833000  0.08333000  0.47433000  1
  O  O1031  1  0.79167000  0.16667000  0.48037000  1
  Ce  Ce1032  1  0.83333000  0.08333000  0.48339000  1
  Ce  Ce1033  1  0.95833000  0.20833000  0.48339000  1
  Ce  Ce1034  1  0.95833000  0.08333000  0.48339000  1
  Ce  Ce1035  1  0.83333000  0.20833000  0.48339000  1
  O  O1036  1  0.83333000  0.08333000  0.49245000  1
  O  O1037  1  0.00000000  1.00000000  0.48641000  1
  O  O1038  1  -0.00000000  0.12500000  0.48641000  1
  O  O1039  1  0.83333000  0.20833000  0.49245000  1
  O  O1040  1  0.95833000  0.20833000  0.49245000  1
  O  O1041  1  0.87500000  0.12500000  0.48641000  1
  O  O1042  1  0.87500000  1.00000000  0.48641000  1
  O  O1043  1  0.95833000  0.08333000  0.49245000  1
  Ce  Ce1044  1  0.00000000  1.00000000  0.49547000  1
  Ce  Ce1045  1  0.87500000  0.12500000  0.49547000  1
  Ce  Ce1046  1  0.87500000  1.00000000  0.49547000  1
  Ce  Ce1047  1  -0.00000000  0.12500000  0.49547000  1
  O  O1048  1  0.00000000  1.00000000  0.50453000  1
  O  O1049  1  0.91667000  0.16667000  0.49849000  1
  O  O1050  1  0.91667000  0.04167000  0.49849000  1
  O  O1051  1  -0.00000000  0.12500000  0.50453000  1
  O  O1052  1  0.87500000  0.12500000  0.50453000  1
  O  O1053  1  0.79167000  0.04167000  0.49849000  1
  O  O1054  1  0.79167000  0.16667000  0.49849000  1
  O  O1055  1  0.87500000  1.00000000  0.50453000  1
  Ce  Ce1056  1  0.91667000  0.16667000  0.50755000  1
  Ce  Ce1057  1  0.79167000  0.04167000  0.50755000  1
  Ce  Ce1058  1  0.79167000  0.16667000  0.50755000  1
  Ce  Ce1059  1  0.91667000  0.04167000  0.50755000  1
  O  O1060  1  0.91667000  0.16667000  0.51661000  1
  O  O1061  1  0.83333000  0.08333000  0.51057000  1
  O  O1062  1  0.83333000  0.20833000  0.51057000  1
  O  O1063  1  0.91667000  0.04167000  0.51661000  1
  O  O1064  1  0.79167000  0.04167000  0.51661000  1
  O  O1065  1  0.95833000  0.20833000  0.51057000  1
  O  O1066  1  0.95833000  0.08333000  0.51057000  1
  O  O1067  1  0.79167000  0.16667000  0.51661000  1
  Ce  Ce1068  1  0.83333000  0.08333000  0.51963000  1
  Ce  Ce1069  1  0.95833000  0.20833000  0.51963000  1
  Ce  Ce1070  1  0.95833000  0.08333000  0.51963000  1
  Ce  Ce1071  1  0.83333000  0.20833000  0.51963000  1
  O  O1072  1  0.83333000  0.08333000  0.52869000  1
  O  O1073  1  1.00000000  1.00000000  0.52265000  1
  O  O1074  1  -0.00000000  0.12500000  0.52265000  1
  O  O1075  1  0.83333000  0.20833000  0.52869000  1
  O  O1076  1  0.95833000  0.20833000  0.52869000  1
  O  O1077  1  0.87500000  0.12500000  0.52265000  1
  O  O1078  1  0.87500000  1.00000000  0.52265000  1
  O  O1079  1  0.95833000  0.08333000  0.52869000  1
  Ce  Ce1080  1  1.00000000  1.00000000  0.53171000  1
  Ce  Ce1081  1  0.87500000  0.12500000  0.53171000  1
  Ce  Ce1082  1  0.87500000  1.00000000  0.53171000  1
  Ce  Ce1083  1  -0.00000000  0.12500000  0.53171000  1
  O  O1084  1  1.00000000  1.00000000  0.54077000  1
  O  O1085  1  0.91667000  0.16667000  0.53473000  1
  O  O1086  1  0.91667000  0.04167000  0.53473000  1
  O  O1087  1  -0.00000000  0.12500000  0.54077000  1
  O  O1088  1  0.87500000  0.12500000  0.54077000  1
  O  O1089  1  0.79167000  0.04167000  0.53473000  1
  O  O1090  1  0.79167000  0.16667000  0.53473000  1
  O  O1091  1  0.87500000  1.00000000  0.54077000  1
  Ce  Ce1092  1  0.75000000  0.25000000  0.45923000  1
  Ce  Ce1093  1  0.87500000  0.37500000  0.45923000  1
  Ce  Ce1094  1  0.87500000  0.25000000  0.45923000  1
  Ce  Ce1095  1  0.75000000  0.37500000  0.45923000  1
  O  O1096  1  -0.00000000  0.25000000  0.46829000  1
  O  O1097  1  0.91667000  0.41667000  0.46225000  1
  O  O1098  1  0.91667000  0.29167000  0.46225000  1
  O  O1099  1  -0.00000000  0.37500000  0.46829000  1
  O  O1100  1  0.87500000  0.37500000  0.46829000  1
  O  O1101  1  0.79167000  0.29167000  0.46225000  1
  O  O1102  1  0.79167000  0.41667000  0.46225000  1
  O  O1103  1  0.87500000  0.25000000  0.46829000  1
  Ce  Ce1104  1  0.91667000  0.41667000  0.47131000  1
  Ce  Ce1105  1  0.79167000  0.29167000  0.47131000  1
  Ce  Ce1106  1  0.79167000  0.41667000  0.47131000  1
  Ce  Ce1107  1  0.91667000  0.29167000  0.47131000  1
  O  O1108  1  0.91667000  0.41667000  0.48037000  1
  O  O1109  1  0.83333000  0.33333000  0.47433000  1
  O  O1110  1  0.83333000  0.45833000  0.47433000  1
  O  O1111  1  0.91667000  0.29167000  0.48037000  1
  O  O1112  1  0.79167000  0.29167000  0.48037000  1
  O  O1113  1  0.95833000  0.45833000  0.47433000  1
  O  O1114  1  0.95833000  0.33333000  0.47433000  1
  O  O1115  1  0.79167000  0.41667000  0.48037000  1
  Ce  Ce1116  1  0.83333000  0.33333000  0.48339000  1
  Ce  Ce1117  1  0.95833000  0.45833000  0.48339000  1
  Ce  Ce1118  1  0.95833000  0.33333000  0.48339000  1
  Ce  Ce1119  1  0.83333000  0.45833000  0.48339000  1
  O  O1120  1  0.83333000  0.33333000  0.49245000  1
  O  O1121  1  1.00000000  0.25000000  0.48641000  1
  O  O1122  1  -0.00000000  0.37500000  0.48641000  1
  O  O1123  1  0.83333000  0.45833000  0.49245000  1
  O  O1124  1  0.95833000  0.45833000  0.49245000  1
  O  O1125  1  0.87500000  0.37500000  0.48641000  1
  O  O1126  1  0.87500000  0.25000000  0.48641000  1
  O  O1127  1  0.95833000  0.33333000  0.49245000  1
  Ce  Ce1128  1  1.00000000  0.25000000  0.49547000  1
  Ce  Ce1129  1  0.87500000  0.37500000  0.49547000  1
  Ce  Ce1130  1  0.87500000  0.25000000  0.49547000  1
  Ce  Ce1131  1  -0.00000000  0.37500000  0.49547000  1
  O  O1132  1  -0.00000000  0.25000000  0.50453000  1
  O  O1133  1  0.91667000  0.41667000  0.49849000  1
  O  O1134  1  0.91667000  0.29167000  0.49849000  1
  O  O1135  1  -0.00000000  0.37500000  0.50453000  1
  O  O1136  1  0.87500000  0.37500000  0.50453000  1
  O  O1137  1  0.79167000  0.29167000  0.49849000  1
  O  O1138  1  0.79167000  0.41667000  0.49849000  1
  O  O1139  1  0.87500000  0.25000000  0.50453000  1
  Ce  Ce1140  1  0.91667000  0.41667000  0.50755000  1
  Ce  Ce1141  1  0.79167000  0.29167000  0.50755000  1
  Ce  Ce1142  1  0.79167000  0.41667000  0.50755000  1
  Ce  Ce1143  1  0.91667000  0.29167000  0.50755000  1
  O  O1144  1  0.91667000  0.41667000  0.51661000  1
  O  O1145  1  0.83333000  0.33333000  0.51057000  1
  O  O1146  1  0.83333000  0.45833000  0.51057000  1
  O  O1147  1  0.91667000  0.29167000  0.51661000  1
  O  O1148  1  0.79167000  0.29167000  0.51661000  1
  O  O1149  1  0.95833000  0.45833000  0.51057000  1
  O  O1150  1  0.95833000  0.33333000  0.51057000  1
  O  O1151  1  0.79167000  0.41667000  0.51661000  1
  Ce  Ce1152  1  0.83333000  0.33333000  0.51963000  1
  Ce  Ce1153  1  0.95833000  0.45833000  0.51963000  1
  Ce  Ce1154  1  0.95833000  0.33333000  0.51963000  1
  Ce  Ce1155  1  0.83333000  0.45833000  0.51963000  1
  O  O1156  1  0.83333000  0.33333000  0.52869000  1
  O  O1157  1  1.00000000  0.25000000  0.52265000  1
  O  O1158  1  -0.00000000  0.37500000  0.52265000  1
  O  O1159  1  0.83333000  0.45833000  0.52869000  1
  O  O1160  1  0.95833000  0.45833000  0.52869000  1
  O  O1161  1  0.87500000  0.37500000  0.52265000  1
  O  O1162  1  0.87500000  0.25000000  0.52265000  1
  O  O1163  1  0.95833000  0.33333000  0.52869000  1
  Ce  Ce1164  1  -0.00000000  0.25000000  0.53171000  1
  Ce  Ce1165  1  0.87500000  0.37500000  0.53171000  1
  Ce  Ce1166  1  0.87500000  0.25000000  0.53171000  1
  Ce  Ce1167  1  -0.00000000  0.37500000  0.53171000  1
  O  O1168  1  -0.00000000  0.25000000  0.54077000  1
  O  O1169  1  0.91667000  0.41667000  0.53473000  1
  O  O1170  1  0.91667000  0.29167000  0.53473000  1
  O  O1171  1  -0.00000000  0.37500000  0.54077000  1
  O  O1172  1  0.87500000  0.37500000  0.54077000  1
  O  O1173  1  0.79167000  0.29167000  0.53473000  1
  O  O1174  1  0.79167000  0.41667000  0.53473000  1
  O  O1175  1  0.87500000  0.25000000  0.54077000  1
  Ce  Ce1176  1  0.75000000  0.50000000  0.45923000  1
  Ce  Ce1177  1  0.87500000  0.62500000  0.45923000  1
  Ce  Ce1178  1  0.87500000  0.50000000  0.45923000  1
  Ce  Ce1179  1  0.75000000  0.62500000  0.45923000  1
  O  O1180  1  -0.00000000  0.50000000  0.46829000  1
  O  O1181  1  0.91667000  0.66667000  0.46225000  1
  O  O1182  1  0.91667000  0.54167000  0.46225000  1
  O  O1183  1  1.00000000  0.62500000  0.46829000  1
  O  O1184  1  0.87500000  0.62500000  0.46829000  1
  O  O1185  1  0.79167000  0.54167000  0.46225000  1
  O  O1186  1  0.79167000  0.66667000  0.46225000  1
  O  O1187  1  0.87500000  0.50000000  0.46829000  1
  Ce  Ce1188  1  0.91667000  0.66667000  0.47131000  1
  Ce  Ce1189  1  0.79167000  0.54167000  0.47131000  1
  Ce  Ce1190  1  0.79167000  0.66667000  0.47131000  1
  Ce  Ce1191  1  0.91667000  0.54167000  0.47131000  1
  O  O1192  1  0.91667000  0.66667000  0.48037000  1
  O  O1193  1  0.83333000  0.58333000  0.47433000  1
  O  O1194  1  0.83333000  0.70833000  0.47433000  1
  O  O1195  1  0.91667000  0.54167000  0.48037000  1
  O  O1196  1  0.79167000  0.54167000  0.48037000  1
  O  O1197  1  0.95833000  0.70833000  0.47433000  1
  O  O1198  1  0.95833000  0.58333000  0.47433000  1
  O  O1199  1  0.79167000  0.66667000  0.48037000  1
  Ce  Ce1200  1  0.83333000  0.58333000  0.48339000  1
  Ce  Ce1201  1  0.95833000  0.70833000  0.48339000  1
  Ce  Ce1202  1  0.95833000  0.58333000  0.48339000  1
  Ce  Ce1203  1  0.83333000  0.70833000  0.48339000  1
  O  O1204  1  0.83333000  0.58333000  0.49245000  1
  O  O1205  1  1.00000000  0.50000000  0.48641000  1
  O  O1206  1  -0.00000000  0.62500000  0.48641000  1
  O  O1207  1  0.83333000  0.70833000  0.49245000  1
  O  O1208  1  0.95833000  0.70833000  0.49245000  1
  O  O1209  1  0.87500000  0.62500000  0.48641000  1
  O  O1210  1  0.87500000  0.50000000  0.48641000  1
  O  O1211  1  0.95833000  0.58333000  0.49245000  1
  Ce  Ce1212  1  1.00000000  0.50000000  0.49547000  1
  Ce  Ce1213  1  0.87500000  0.62500000  0.49547000  1
  Ce  Ce1214  1  0.87500000  0.50000000  0.49547000  1
  Ce  Ce1215  1  -0.00000000  0.62500000  0.49547000  1
  O  O1216  1  1.00000000  0.50000000  0.50453000  1
  O  O1217  1  0.91667000  0.66667000  0.49849000  1
  O  O1218  1  0.91667000  0.54167000  0.49849000  1
  O  O1219  1  -0.00000000  0.62500000  0.50453000  1
  O  O1220  1  0.87500000  0.62500000  0.50453000  1
  O  O1221  1  0.79167000  0.54167000  0.49849000  1
  O  O1222  1  0.79167000  0.66667000  0.49849000  1
  O  O1223  1  0.87500000  0.50000000  0.50453000  1
  Ce  Ce1224  1  0.91667000  0.66667000  0.50755000  1
  Ce  Ce1225  1  0.79167000  0.54167000  0.50755000  1
  Ce  Ce1226  1  0.79167000  0.66667000  0.50755000  1
  Ce  Ce1227  1  0.91667000  0.54167000  0.50755000  1
  O  O1228  1  0.91667000  0.66667000  0.51661000  1
  O  O1229  1  0.83333000  0.58333000  0.51057000  1
  O  O1230  1  0.83333000  0.70833000  0.51057000  1
  O  O1231  1  0.91667000  0.54167000  0.51661000  1
  O  O1232  1  0.79167000  0.54167000  0.51661000  1
  O  O1233  1  0.95833000  0.70833000  0.51057000  1
  O  O1234  1  0.95833000  0.58333000  0.51057000  1
  O  O1235  1  0.79167000  0.66667000  0.51661000  1
  Ce  Ce1236  1  0.83333000  0.58333000  0.51963000  1
  Ce  Ce1237  1  0.95833000  0.70833000  0.51963000  1
  Ce  Ce1238  1  0.95833000  0.58333000  0.51963000  1
  Ce  Ce1239  1  0.83333000  0.70833000  0.51963000  1
  O  O1240  1  0.83333000  0.58333000  0.52869000  1
  O  O1241  1  1.00000000  0.50000000  0.52265000  1
  O  O1242  1  -0.00000000  0.62500000  0.52265000  1
  O  O1243  1  0.83333000  0.70833000  0.52869000  1
  O  O1244  1  0.95833000  0.70833000  0.52869000  1
  O  O1245  1  0.87500000  0.62500000  0.52265000  1
  O  O1246  1  0.87500000  0.50000000  0.52265000  1
  O  O1247  1  0.95833000  0.58333000  0.52869000  1
  Ce  Ce1248  1  1.00000000  0.50000000  0.53171000  1
  Ce  Ce1249  1  0.87500000  0.62500000  0.53171000  1
  Ce  Ce1250  1  0.87500000  0.50000000  0.53171000  1
  Ce  Ce1251  1  -0.00000000  0.62500000  0.53171000  1
  O  O1252  1  1.00000000  0.50000000  0.54077000  1
  O  O1253  1  0.91667000  0.66667000  0.53473000  1
  O  O1254  1  0.91667000  0.54167000  0.53473000  1
  O  O1255  1  -0.00000000  0.62500000  0.54077000  1
  O  O1256  1  0.87500000  0.62500000  0.54077000  1
  O  O1257  1  0.79167000  0.54167000  0.53473000  1
  O  O1258  1  0.79167000  0.66667000  0.53473000  1
  O  O1259  1  0.87500000  0.50000000  0.54077000  1
  Ce  Ce1260  1  0.75000000  0.75000000  0.45923000  1
  Ce  Ce1261  1  0.87500000  0.87500000  0.45923000  1
  Ce  Ce1262  1  0.87500000  0.75000000  0.45923000  1
  Ce  Ce1263  1  0.75000000  0.87500000  0.45923000  1
  O  O1264  1  -0.00000000  0.75000000  0.46829000  1
  O  O1265  1  0.91667000  0.91667000  0.46225000  1
  O  O1266  1  0.91667000  0.79167000  0.46225000  1
  O  O1267  1  1.00000000  0.87500000  0.46829000  1
  O  O1268  1  0.87500000  0.87500000  0.46829000  1
  O  O1269  1  0.79167000  0.79167000  0.46225000  1
  O  O1270  1  0.79167000  0.91667000  0.46225000  1
  O  O1271  1  0.87500000  0.75000000  0.46829000  1
  Ce  Ce1272  1  0.91667000  0.91667000  0.47131000  1
  Ce  Ce1273  1  0.79167000  0.79167000  0.47131000  1
  Ce  Ce1274  1  0.79167000  0.91667000  0.47131000  1
  Ce  Ce1275  1  0.91667000  0.79167000  0.47131000  1
  O  O1276  1  0.91667000  0.91667000  0.48037000  1
  O  O1277  1  0.83333000  0.83333000  0.47433000  1
  O  O1278  1  0.83333000  0.95833000  0.47433000  1
  O  O1279  1  0.91667000  0.79167000  0.48037000  1
  O  O1280  1  0.79167000  0.79167000  0.48037000  1
  O  O1281  1  0.95833000  0.95833000  0.47433000  1
  O  O1282  1  0.95833000  0.83333000  0.47433000  1
  O  O1283  1  0.79167000  0.91667000  0.48037000  1
  Ce  Ce1284  1  0.83333000  0.83333000  0.48339000  1
  Ce  Ce1285  1  0.95833000  0.95833000  0.48339000  1
  Ce  Ce1286  1  0.95833000  0.83333000  0.48339000  1
  Ce  Ce1287  1  0.83333000  0.95833000  0.48339000  1
  O  O1288  1  0.83333000  0.83333000  0.49245000  1
  O  O1289  1  -0.00000000  0.75000000  0.48641000  1
  O  O1290  1  1.00000000  0.87500000  0.48641000  1
  O  O1291  1  0.83333000  0.95833000  0.49245000  1
  O  O1292  1  0.95833000  0.95833000  0.49245000  1
  O  O1293  1  0.87500000  0.87500000  0.48641000  1
  O  O1294  1  0.87500000  0.75000000  0.48641000  1
  O  O1295  1  0.95833000  0.83333000  0.49245000  1
  Ce  Ce1296  1  -0.00000000  0.75000000  0.49547000  1
  Ce  Ce1297  1  0.87500000  0.87500000  0.49547000  1
  Ce  Ce1298  1  0.87500000  0.75000000  0.49547000  1
  Ce  Ce1299  1  1.00000000  0.87500000  0.49547000  1
  O  O1300  1  -0.00000000  0.75000000  0.50453000  1
  O  O1301  1  0.91667000  0.91667000  0.49849000  1
  O  O1302  1  0.91667000  0.79167000  0.49849000  1
  O  O1303  1  1.00000000  0.87500000  0.50453000  1
  O  O1304  1  0.87500000  0.87500000  0.50453000  1
  O  O1305  1  0.79167000  0.79167000  0.49849000  1
  O  O1306  1  0.79167000  0.91667000  0.49849000  1
  O  O1307  1  0.87500000  0.75000000  0.50453000  1
  Ce  Ce1308  1  0.91667000  0.91667000  0.50755000  1
  Ce  Ce1309  1  0.79167000  0.79167000  0.50755000  1
  Ce  Ce1310  1  0.79167000  0.91667000  0.50755000  1
  Ce  Ce1311  1  0.91667000  0.79167000  0.50755000  1
  O  O1312  1  0.91667000  0.91667000  0.51661000  1
  O  O1313  1  0.83333000  0.83333000  0.51057000  1
  O  O1314  1  0.83333000  0.95833000  0.51057000  1
  O  O1315  1  0.91667000  0.79167000  0.51661000  1
  O  O1316  1  0.79167000  0.79167000  0.51661000  1
  O  O1317  1  0.95833000  0.95833000  0.51057000  1
  O  O1318  1  0.95833000  0.83333000  0.51057000  1
  O  O1319  1  0.79167000  0.91667000  0.51661000  1
  Ce  Ce1320  1  0.83333000  0.83333000  0.51963000  1
  Ce  Ce1321  1  0.95833000  0.95833000  0.51963000  1
  Ce  Ce1322  1  0.95833000  0.83333000  0.51963000  1
  Ce  Ce1323  1  0.83333000  0.95833000  0.51963000  1
  O  O1324  1  0.83333000  0.83333000  0.52869000  1
  O  O1325  1  -0.00000000  0.75000000  0.52265000  1
  O  O1326  1  0.00000000  0.87500000  0.52265000  1
  O  O1327  1  0.83333000  0.95833000  0.52869000  1
  O  O1328  1  0.95833000  0.95833000  0.52869000  1
  O  O1329  1  0.87500000  0.87500000  0.52265000  1
  O  O1330  1  0.87500000  0.75000000  0.52265000  1
  O  O1331  1  0.95833000  0.83333000  0.52869000  1
  Ce  Ce1332  1  -0.00000000  0.75000000  0.53171000  1
  Ce  Ce1333  1  0.87500000  0.87500000  0.53171000  1
  Ce  Ce1334  1  0.87500000  0.75000000  0.53171000  1
  Ce  Ce1335  1  0.00000000  0.87500000  0.53171000  1
  O  O1336  1  -0.00000000  0.75000000  0.54077000  1
  O  O1337  1  0.91667000  0.91667000  0.53473000  1
  O  O1338  1  0.91667000  0.79167000  0.53473000  1
  O  O1339  1  0.00000000  0.87500000  0.54077000  1
  O  O1340  1  0.87500000  0.87500000  0.54077000  1
  O  O1341  1  0.79167000  0.79167000  0.53473000  1
  O  O1342  1  0.79167000  0.91667000  0.53473000  1
  O  O1343  1  0.87500000  0.75000000  0.54077000  1
