# generated using pymatgen
data_CeO2
_symmetry_space_group_name_H-M   'P 1'
_cell_length_a   15.46428487
_cell_length_b   21.86980140
_cell_length_c   201.03570335
_cell_angle_alpha   90.00000000
_cell_angle_beta   90.00000000
_cell_angle_gamma   90.00000000
_symmetry_Int_Tables_number   1
_chemical_formula_structural   CeO2
_chemical_formula_sum   'Ce640 O1280'
_cell_volume   67990.44353592
_cell_formula_units_Z   640
loop_
 _symmetry_equiv_pos_site_id
 _symmetry_equiv_pos_as_xyz
  1  'x, y, z'
loop_
 _atom_type_symbol
 _atom_type_oxidation_number
  Ce4+  4.0
  O2-  -2.0
loop_
 _atom_site_type_symbol
 _atom_site_label
 _atom_site_symmetry_multiplicity
 _atom_site_fract_x
 _atom_site_fract_y
 _atom_site_fract_z
 _atom_site_occupancy
  Ce4+  Ce0  1  0.18750000  0.25000000  0.01442308  1.0
  Ce4+  Ce1  1  0.18750000  0.50000000  0.01442308  1.0
  Ce4+  Ce2  1  0.18750000  0.75000000  0.01442308  1.0
  Ce4+  Ce3  1  0.18750000  0.00000000  0.01442308  1.0
  Ce4+  Ce4  1  0.43750000  0.25000000  0.01442308  1.0
  Ce4+  Ce5  1  0.43750000  0.50000000  0.01442308  1.0
  Ce4+  Ce6  1  0.43750000  0.75000000  0.01442308  1.0
  Ce4+  Ce7  1  0.43750000  0.00000000  0.01442308  1.0
  Ce4+  Ce8  1  0.68750000  0.25000000  0.01442308  1.0
  Ce4+  Ce9  1  0.68750000  0.50000000  0.01442308  1.0
  Ce4+  Ce10  1  0.68750000  0.75000000  0.01442308  1.0
  Ce4+  Ce11  1  0.68750000  0.00000000  0.01442308  1.0
  Ce4+  Ce12  1  0.93750000  0.25000000  0.01442308  1.0
  Ce4+  Ce13  1  0.93750000  0.50000000  0.01442308  1.0
  Ce4+  Ce14  1  0.93750000  0.75000000  0.01442308  1.0
  Ce4+  Ce15  1  0.93750000  0.00000000  0.01442308  1.0
  Ce4+  Ce16  1  0.06250000  0.12500000  0.00480769  1.0
  Ce4+  Ce17  1  0.06250000  0.37500000  0.00480769  1.0
  Ce4+  Ce18  1  0.06250000  0.62500000  0.00480769  1.0
  Ce4+  Ce19  1  0.06250000  0.87500000  0.00480769  1.0
  Ce4+  Ce20  1  0.31250000  0.12500000  0.00480769  1.0
  Ce4+  Ce21  1  0.31250000  0.37500000  0.00480769  1.0
  Ce4+  Ce22  1  0.31250000  0.62500000  0.00480769  1.0
  Ce4+  Ce23  1  0.31250000  0.87500000  0.00480769  1.0
  Ce4+  Ce24  1  0.56250000  0.12500000  0.00480769  1.0
  Ce4+  Ce25  1  0.56250000  0.37500000  0.00480769  1.0
  Ce4+  Ce26  1  0.56250000  0.62500000  0.00480769  1.0
  Ce4+  Ce27  1  0.56250000  0.87500000  0.00480769  1.0
  Ce4+  Ce28  1  0.81250000  0.12500000  0.00480769  1.0
  Ce4+  Ce29  1  0.81250000  0.37500000  0.00480769  1.0
  Ce4+  Ce30  1  0.81250000  0.62500000  0.00480769  1.0
  Ce4+  Ce31  1  0.81250000  0.87500000  0.00480769  1.0
  Ce4+  Ce32  1  0.18750000  0.25000000  0.03365385  1.0
  Ce4+  Ce33  1  0.18750000  0.50000000  0.03365385  1.0
  Ce4+  Ce34  1  0.18750000  0.75000000  0.03365385  1.0
  Ce4+  Ce35  1  0.18750000  0.00000000  0.03365385  1.0
  Ce4+  Ce36  1  0.43750000  0.25000000  0.03365385  1.0
  Ce4+  Ce37  1  0.43750000  0.50000000  0.03365385  1.0
  Ce4+  Ce38  1  0.43750000  0.75000000  0.03365385  1.0
  Ce4+  Ce39  1  0.43750000  0.00000000  0.03365385  1.0
  Ce4+  Ce40  1  0.68750000  0.25000000  0.03365385  1.0
  Ce4+  Ce41  1  0.68750000  0.50000000  0.03365385  1.0
  Ce4+  Ce42  1  0.68750000  0.75000000  0.03365385  1.0
  Ce4+  Ce43  1  0.68750000  0.00000000  0.03365385  1.0
  Ce4+  Ce44  1  0.93750000  0.25000000  0.03365385  1.0
  Ce4+  Ce45  1  0.93750000  0.50000000  0.03365385  1.0
  Ce4+  Ce46  1  0.93750000  0.75000000  0.03365385  1.0
  Ce4+  Ce47  1  0.93750000  0.00000000  0.03365385  1.0
  Ce4+  Ce48  1  0.06250000  0.12500000  0.02403846  1.0
  Ce4+  Ce49  1  0.06250000  0.37500000  0.02403846  1.0
  Ce4+  Ce50  1  0.06250000  0.62500000  0.02403846  1.0
  Ce4+  Ce51  1  0.06250000  0.87500000  0.02403846  1.0
  Ce4+  Ce52  1  0.31250000  0.12500000  0.02403846  1.0
  Ce4+  Ce53  1  0.31250000  0.37500000  0.02403846  1.0
  Ce4+  Ce54  1  0.31250000  0.62500000  0.02403846  1.0
  Ce4+  Ce55  1  0.31250000  0.87500000  0.02403846  1.0
  Ce4+  Ce56  1  0.56250000  0.12500000  0.02403846  1.0
  Ce4+  Ce57  1  0.56250000  0.37500000  0.02403846  1.0
  Ce4+  Ce58  1  0.56250000  0.62500000  0.02403846  1.0
  Ce4+  Ce59  1  0.56250000  0.87500000  0.02403846  1.0
  Ce4+  Ce60  1  0.81250000  0.12500000  0.02403846  1.0
  Ce4+  Ce61  1  0.81250000  0.37500000  0.02403846  1.0
  Ce4+  Ce62  1  0.81250000  0.62500000  0.02403846  1.0
  Ce4+  Ce63  1  0.81250000  0.87500000  0.02403846  1.0
  Ce4+  Ce64  1  0.18750000  0.25000000  0.05288462  1.0
  Ce4+  Ce65  1  0.18750000  0.50000000  0.05288462  1.0
  Ce4+  Ce66  1  0.18750000  0.75000000  0.05288462  1.0
  Ce4+  Ce67  1  0.18750000  0.00000000  0.05288462  1.0
  Ce4+  Ce68  1  0.43750000  0.25000000  0.05288462  1.0
  Ce4+  Ce69  1  0.43750000  0.50000000  0.05288462  1.0
  Ce4+  Ce70  1  0.43750000  0.75000000  0.05288462  1.0
  Ce4+  Ce71  1  0.43750000  0.00000000  0.05288462  1.0
  Ce4+  Ce72  1  0.68750000  0.25000000  0.05288462  1.0
  Ce4+  Ce73  1  0.68750000  0.50000000  0.05288462  1.0
  Ce4+  Ce74  1  0.68750000  0.75000000  0.05288462  1.0
  Ce4+  Ce75  1  0.68750000  0.00000000  0.05288462  1.0
  Ce4+  Ce76  1  0.93750000  0.25000000  0.05288462  1.0
  Ce4+  Ce77  1  0.93750000  0.50000000  0.05288462  1.0
  Ce4+  Ce78  1  0.93750000  0.75000000  0.05288462  1.0
  Ce4+  Ce79  1  0.93750000  0.00000000  0.05288462  1.0
  Ce4+  Ce80  1  0.06250000  0.12500000  0.04326923  1.0
  Ce4+  Ce81  1  0.06250000  0.37500000  0.04326923  1.0
  Ce4+  Ce82  1  0.06250000  0.62500000  0.04326923  1.0
  Ce4+  Ce83  1  0.06250000  0.87500000  0.04326923  1.0
  Ce4+  Ce84  1  0.31250000  0.12500000  0.04326923  1.0
  Ce4+  Ce85  1  0.31250000  0.37500000  0.04326923  1.0
  Ce4+  Ce86  1  0.31250000  0.62500000  0.04326923  1.0
  Ce4+  Ce87  1  0.31250000  0.87500000  0.04326923  1.0
  Ce4+  Ce88  1  0.56250000  0.12500000  0.04326923  1.0
  Ce4+  Ce89  1  0.56250000  0.37500000  0.04326923  1.0
  Ce4+  Ce90  1  0.56250000  0.62500000  0.04326923  1.0
  Ce4+  Ce91  1  0.56250000  0.87500000  0.04326923  1.0
  Ce4+  Ce92  1  0.81250000  0.12500000  0.04326923  1.0
  Ce4+  Ce93  1  0.81250000  0.37500000  0.04326923  1.0
  Ce4+  Ce94  1  0.81250000  0.62500000  0.04326923  1.0
  Ce4+  Ce95  1  0.81250000  0.87500000  0.04326923  1.0
  Ce4+  Ce96  1  0.18750000  0.25000000  0.07211538  1.0
  Ce4+  Ce97  1  0.18750000  0.50000000  0.07211538  1.0
  Ce4+  Ce98  1  0.18750000  0.75000000  0.07211538  1.0
  Ce4+  Ce99  1  0.18750000  0.00000000  0.07211538  1.0
  Ce4+  Ce100  1  0.43750000  0.25000000  0.07211538  1.0
  Ce4+  Ce101  1  0.43750000  0.50000000  0.07211538  1.0
  Ce4+  Ce102  1  0.43750000  0.75000000  0.07211538  1.0
  Ce4+  Ce103  1  0.43750000  0.00000000  0.07211538  1.0
  Ce4+  Ce104  1  0.68750000  0.25000000  0.07211538  1.0
  Ce4+  Ce105  1  0.68750000  0.50000000  0.07211538  1.0
  Ce4+  Ce106  1  0.68750000  0.75000000  0.07211538  1.0
  Ce4+  Ce107  1  0.68750000  0.00000000  0.07211538  1.0
  Ce4+  Ce108  1  0.93750000  0.25000000  0.07211538  1.0
  Ce4+  Ce109  1  0.93750000  0.50000000  0.07211538  1.0
  Ce4+  Ce110  1  0.93750000  0.75000000  0.07211538  1.0
  Ce4+  Ce111  1  0.93750000  0.00000000  0.07211538  1.0
  Ce4+  Ce112  1  0.06250000  0.12500000  0.06250000  1.0
  Ce4+  Ce113  1  0.06250000  0.37500000  0.06250000  1.0
  Ce4+  Ce114  1  0.06250000  0.62500000  0.06250000  1.0
  Ce4+  Ce115  1  0.06250000  0.87500000  0.06250000  1.0
  Ce4+  Ce116  1  0.31250000  0.12500000  0.06250000  1.0
  Ce4+  Ce117  1  0.31250000  0.37500000  0.06250000  1.0
  Ce4+  Ce118  1  0.31250000  0.62500000  0.06250000  1.0
  Ce4+  Ce119  1  0.31250000  0.87500000  0.06250000  1.0
  Ce4+  Ce120  1  0.56250000  0.12500000  0.06250000  1.0
  Ce4+  Ce121  1  0.56250000  0.37500000  0.06250000  1.0
  Ce4+  Ce122  1  0.56250000  0.62500000  0.06250000  1.0
  Ce4+  Ce123  1  0.56250000  0.87500000  0.06250000  1.0
  Ce4+  Ce124  1  0.81250000  0.12500000  0.06250000  1.0
  Ce4+  Ce125  1  0.81250000  0.37500000  0.06250000  1.0
  Ce4+  Ce126  1  0.81250000  0.62500000  0.06250000  1.0
  Ce4+  Ce127  1  0.81250000  0.87500000  0.06250000  1.0
  Ce4+  Ce128  1  0.18750000  0.25000000  0.09134615  1.0
  Ce4+  Ce129  1  0.18750000  0.50000000  0.09134615  1.0
  Ce4+  Ce130  1  0.18750000  0.75000000  0.09134615  1.0
  Ce4+  Ce131  1  0.18750000  0.00000000  0.09134615  1.0
  Ce4+  Ce132  1  0.43750000  0.25000000  0.09134615  1.0
  Ce4+  Ce133  1  0.43750000  0.50000000  0.09134615  1.0
  Ce4+  Ce134  1  0.43750000  0.75000000  0.09134615  1.0
  Ce4+  Ce135  1  0.43750000  0.00000000  0.09134615  1.0
  Ce4+  Ce136  1  0.68750000  0.25000000  0.09134615  1.0
  Ce4+  Ce137  1  0.68750000  0.50000000  0.09134615  1.0
  Ce4+  Ce138  1  0.68750000  0.75000000  0.09134615  1.0
  Ce4+  Ce139  1  0.68750000  0.00000000  0.09134615  1.0
  Ce4+  Ce140  1  0.93750000  0.25000000  0.09134615  1.0
  Ce4+  Ce141  1  0.93750000  0.50000000  0.09134615  1.0
  Ce4+  Ce142  1  0.93750000  0.75000000  0.09134615  1.0
  Ce4+  Ce143  1  0.93750000  0.00000000  0.09134615  1.0
  Ce4+  Ce144  1  0.06250000  0.12500000  0.08173077  1.0
  Ce4+  Ce145  1  0.06250000  0.37500000  0.08173077  1.0
  Ce4+  Ce146  1  0.06250000  0.62500000  0.08173077  1.0
  Ce4+  Ce147  1  0.06250000  0.87500000  0.08173077  1.0
  Ce4+  Ce148  1  0.31250000  0.12500000  0.08173077  1.0
  Ce4+  Ce149  1  0.31250000  0.37500000  0.08173077  1.0
  Ce4+  Ce150  1  0.31250000  0.62500000  0.08173077  1.0
  Ce4+  Ce151  1  0.31250000  0.87500000  0.08173077  1.0
  Ce4+  Ce152  1  0.56250000  0.12500000  0.08173077  1.0
  Ce4+  Ce153  1  0.56250000  0.37500000  0.08173077  1.0
  Ce4+  Ce154  1  0.56250000  0.62500000  0.08173077  1.0
  Ce4+  Ce155  1  0.56250000  0.87500000  0.08173077  1.0
  Ce4+  Ce156  1  0.81250000  0.12500000  0.08173077  1.0
  Ce4+  Ce157  1  0.81250000  0.37500000  0.08173077  1.0
  Ce4+  Ce158  1  0.81250000  0.62500000  0.08173077  1.0
  Ce4+  Ce159  1  0.81250000  0.87500000  0.08173077  1.0
  Ce4+  Ce160  1  0.18750000  0.25000000  0.11057692  1.0
  Ce4+  Ce161  1  0.18750000  0.50000000  0.11057692  1.0
  Ce4+  Ce162  1  0.18750000  0.75000000  0.11057692  1.0
  Ce4+  Ce163  1  0.18750000  0.00000000  0.11057692  1.0
  Ce4+  Ce164  1  0.43750000  0.25000000  0.11057692  1.0
  Ce4+  Ce165  1  0.43750000  0.50000000  0.11057692  1.0
  Ce4+  Ce166  1  0.43750000  0.75000000  0.11057692  1.0
  Ce4+  Ce167  1  0.43750000  0.00000000  0.11057692  1.0
  Ce4+  Ce168  1  0.68750000  0.25000000  0.11057692  1.0
  Ce4+  Ce169  1  0.68750000  0.50000000  0.11057692  1.0
  Ce4+  Ce170  1  0.68750000  0.75000000  0.11057692  1.0
  Ce4+  Ce171  1  0.68750000  0.00000000  0.11057692  1.0
  Ce4+  Ce172  1  0.93750000  0.25000000  0.11057692  1.0
  Ce4+  Ce173  1  0.93750000  0.50000000  0.11057692  1.0
  Ce4+  Ce174  1  0.93750000  0.75000000  0.11057692  1.0
  Ce4+  Ce175  1  0.93750000  0.00000000  0.11057692  1.0
  Ce4+  Ce176  1  0.06250000  0.12500000  0.10096154  1.0
  Ce4+  Ce177  1  0.06250000  0.37500000  0.10096154  1.0
  Ce4+  Ce178  1  0.06250000  0.62500000  0.10096154  1.0
  Ce4+  Ce179  1  0.06250000  0.87500000  0.10096154  1.0
  Ce4+  Ce180  1  0.31250000  0.12500000  0.10096154  1.0
  Ce4+  Ce181  1  0.31250000  0.37500000  0.10096154  1.0
  Ce4+  Ce182  1  0.31250000  0.62500000  0.10096154  1.0
  Ce4+  Ce183  1  0.31250000  0.87500000  0.10096154  1.0
  Ce4+  Ce184  1  0.56250000  0.12500000  0.10096154  1.0
  Ce4+  Ce185  1  0.56250000  0.37500000  0.10096154  1.0
  Ce4+  Ce186  1  0.56250000  0.62500000  0.10096154  1.0
  Ce4+  Ce187  1  0.56250000  0.87500000  0.10096154  1.0
  Ce4+  Ce188  1  0.81250000  0.12500000  0.10096154  1.0
  Ce4+  Ce189  1  0.81250000  0.37500000  0.10096154  1.0
  Ce4+  Ce190  1  0.81250000  0.62500000  0.10096154  1.0
  Ce4+  Ce191  1  0.81250000  0.87500000  0.10096154  1.0
  Ce4+  Ce192  1  0.18750000  0.25000000  0.12980769  1.0
  Ce4+  Ce193  1  0.18750000  0.50000000  0.12980769  1.0
  Ce4+  Ce194  1  0.18750000  0.75000000  0.12980769  1.0
  Ce4+  Ce195  1  0.18750000  0.00000000  0.12980769  1.0
  Ce4+  Ce196  1  0.43750000  0.25000000  0.12980769  1.0
  Ce4+  Ce197  1  0.43750000  0.50000000  0.12980769  1.0
  Ce4+  Ce198  1  0.43750000  0.75000000  0.12980769  1.0
  Ce4+  Ce199  1  0.43750000  0.00000000  0.12980769  1.0
  Ce4+  Ce200  1  0.68750000  0.25000000  0.12980769  1.0
  Ce4+  Ce201  1  0.68750000  0.50000000  0.12980769  1.0
  Ce4+  Ce202  1  0.68750000  0.75000000  0.12980769  1.0
  Ce4+  Ce203  1  0.68750000  0.00000000  0.12980769  1.0
  Ce4+  Ce204  1  0.93750000  0.25000000  0.12980769  1.0
  Ce4+  Ce205  1  0.93750000  0.50000000  0.12980769  1.0
  Ce4+  Ce206  1  0.93750000  0.75000000  0.12980769  1.0
  Ce4+  Ce207  1  0.93750000  0.00000000  0.12980769  1.0
  Ce4+  Ce208  1  0.06250000  0.12500000  0.12019231  1.0
  Ce4+  Ce209  1  0.06250000  0.37500000  0.12019231  1.0
  Ce4+  Ce210  1  0.06250000  0.62500000  0.12019231  1.0
  Ce4+  Ce211  1  0.06250000  0.87500000  0.12019231  1.0
  Ce4+  Ce212  1  0.31250000  0.12500000  0.12019231  1.0
  Ce4+  Ce213  1  0.31250000  0.37500000  0.12019231  1.0
  Ce4+  Ce214  1  0.31250000  0.62500000  0.12019231  1.0
  Ce4+  Ce215  1  0.31250000  0.87500000  0.12019231  1.0
  Ce4+  Ce216  1  0.56250000  0.12500000  0.12019231  1.0
  Ce4+  Ce217  1  0.56250000  0.37500000  0.12019231  1.0
  Ce4+  Ce218  1  0.56250000  0.62500000  0.12019231  1.0
  Ce4+  Ce219  1  0.56250000  0.87500000  0.12019231  1.0
  Ce4+  Ce220  1  0.81250000  0.12500000  0.12019231  1.0
  Ce4+  Ce221  1  0.81250000  0.37500000  0.12019231  1.0
  Ce4+  Ce222  1  0.81250000  0.62500000  0.12019231  1.0
  Ce4+  Ce223  1  0.81250000  0.87500000  0.12019231  1.0
  Ce4+  Ce224  1  0.18750000  0.25000000  0.14903846  1.0
  Ce4+  Ce225  1  0.18750000  0.50000000  0.14903846  1.0
  Ce4+  Ce226  1  0.18750000  0.75000000  0.14903846  1.0
  Ce4+  Ce227  1  0.18750000  0.00000000  0.14903846  1.0
  Ce4+  Ce228  1  0.43750000  0.25000000  0.14903846  1.0
  Ce4+  Ce229  1  0.43750000  0.50000000  0.14903846  1.0
  Ce4+  Ce230  1  0.43750000  0.75000000  0.14903846  1.0
  Ce4+  Ce231  1  0.43750000  0.00000000  0.14903846  1.0
  Ce4+  Ce232  1  0.68750000  0.25000000  0.14903846  1.0
  Ce4+  Ce233  1  0.68750000  0.50000000  0.14903846  1.0
  Ce4+  Ce234  1  0.68750000  0.75000000  0.14903846  1.0
  Ce4+  Ce235  1  0.68750000  0.00000000  0.14903846  1.0
  Ce4+  Ce236  1  0.93750000  0.25000000  0.14903846  1.0
  Ce4+  Ce237  1  0.93750000  0.50000000  0.14903846  1.0
  Ce4+  Ce238  1  0.93750000  0.75000000  0.14903846  1.0
  Ce4+  Ce239  1  0.93750000  0.00000000  0.14903846  1.0
  Ce4+  Ce240  1  0.06250000  0.12500000  0.13942308  1.0
  Ce4+  Ce241  1  0.06250000  0.37500000  0.13942308  1.0
  Ce4+  Ce242  1  0.06250000  0.62500000  0.13942308  1.0
  Ce4+  Ce243  1  0.06250000  0.87500000  0.13942308  1.0
  Ce4+  Ce244  1  0.31250000  0.12500000  0.13942308  1.0
  Ce4+  Ce245  1  0.31250000  0.37500000  0.13942308  1.0
  Ce4+  Ce246  1  0.31250000  0.62500000  0.13942308  1.0
  Ce4+  Ce247  1  0.31250000  0.87500000  0.13942308  1.0
  Ce4+  Ce248  1  0.56250000  0.12500000  0.13942308  1.0
  Ce4+  Ce249  1  0.56250000  0.37500000  0.13942308  1.0
  Ce4+  Ce250  1  0.56250000  0.62500000  0.13942308  1.0
  Ce4+  Ce251  1  0.56250000  0.87500000  0.13942308  1.0
  Ce4+  Ce252  1  0.81250000  0.12500000  0.13942308  1.0
  Ce4+  Ce253  1  0.81250000  0.37500000  0.13942308  1.0
  Ce4+  Ce254  1  0.81250000  0.62500000  0.13942308  1.0
  Ce4+  Ce255  1  0.81250000  0.87500000  0.13942308  1.0
  Ce4+  Ce256  1  0.18750000  0.25000000  0.16826923  1.0
  Ce4+  Ce257  1  0.18750000  0.50000000  0.16826923  1.0
  Ce4+  Ce258  1  0.18750000  0.75000000  0.16826923  1.0
  Ce4+  Ce259  1  0.18750000  0.00000000  0.16826923  1.0
  Ce4+  Ce260  1  0.43750000  0.25000000  0.16826923  1.0
  Ce4+  Ce261  1  0.43750000  0.50000000  0.16826923  1.0
  Ce4+  Ce262  1  0.43750000  0.75000000  0.16826923  1.0
  Ce4+  Ce263  1  0.43750000  0.00000000  0.16826923  1.0
  Ce4+  Ce264  1  0.68750000  0.25000000  0.16826923  1.0
  Ce4+  Ce265  1  0.68750000  0.50000000  0.16826923  1.0
  Ce4+  Ce266  1  0.68750000  0.75000000  0.16826923  1.0
  Ce4+  Ce267  1  0.68750000  0.00000000  0.16826923  1.0
  Ce4+  Ce268  1  0.93750000  0.25000000  0.16826923  1.0
  Ce4+  Ce269  1  0.93750000  0.50000000  0.16826923  1.0
  Ce4+  Ce270  1  0.93750000  0.75000000  0.16826923  1.0
  Ce4+  Ce271  1  0.93750000  0.00000000  0.16826923  1.0
  Ce4+  Ce272  1  0.06250000  0.12500000  0.15865385  1.0
  Ce4+  Ce273  1  0.06250000  0.37500000  0.15865385  1.0
  Ce4+  Ce274  1  0.06250000  0.62500000  0.15865385  1.0
  Ce4+  Ce275  1  0.06250000  0.87500000  0.15865385  1.0
  Ce4+  Ce276  1  0.31250000  0.12500000  0.15865385  1.0
  Ce4+  Ce277  1  0.31250000  0.37500000  0.15865385  1.0
  Ce4+  Ce278  1  0.31250000  0.62500000  0.15865385  1.0
  Ce4+  Ce279  1  0.31250000  0.87500000  0.15865385  1.0
  Ce4+  Ce280  1  0.56250000  0.12500000  0.15865385  1.0
  Ce4+  Ce281  1  0.56250000  0.37500000  0.15865385  1.0
  Ce4+  Ce282  1  0.56250000  0.62500000  0.15865385  1.0
  Ce4+  Ce283  1  0.56250000  0.87500000  0.15865385  1.0
  Ce4+  Ce284  1  0.81250000  0.12500000  0.15865385  1.0
  Ce4+  Ce285  1  0.81250000  0.37500000  0.15865385  1.0
  Ce4+  Ce286  1  0.81250000  0.62500000  0.15865385  1.0
  Ce4+  Ce287  1  0.81250000  0.87500000  0.15865385  1.0
  Ce4+  Ce288  1  0.18750000  0.25000000  0.18750000  1.0
  Ce4+  Ce289  1  0.18750000  0.50000000  0.18750000  1.0
  Ce4+  Ce290  1  0.18750000  0.75000000  0.18750000  1.0
  Ce4+  Ce291  1  0.18750000  0.00000000  0.18750000  1.0
  Ce4+  Ce292  1  0.43750000  0.25000000  0.18750000  1.0
  Ce4+  Ce293  1  0.43750000  0.50000000  0.18750000  1.0
  Ce4+  Ce294  1  0.43750000  0.75000000  0.18750000  1.0
  Ce4+  Ce295  1  0.43750000  0.00000000  0.18750000  1.0
  Ce4+  Ce296  1  0.68750000  0.25000000  0.18750000  1.0
  Ce4+  Ce297  1  0.68750000  0.50000000  0.18750000  1.0
  Ce4+  Ce298  1  0.68750000  0.75000000  0.18750000  1.0
  Ce4+  Ce299  1  0.68750000  0.00000000  0.18750000  1.0
  Ce4+  Ce300  1  0.93750000  0.25000000  0.18750000  1.0
  Ce4+  Ce301  1  0.93750000  0.50000000  0.18750000  1.0
  Ce4+  Ce302  1  0.93750000  0.75000000  0.18750000  1.0
  Ce4+  Ce303  1  0.93750000  0.00000000  0.18750000  1.0
  Ce4+  Ce304  1  0.06250000  0.12500000  0.17788462  1.0
  Ce4+  Ce305  1  0.06250000  0.37500000  0.17788462  1.0
  Ce4+  Ce306  1  0.06250000  0.62500000  0.17788462  1.0
  Ce4+  Ce307  1  0.06250000  0.87500000  0.17788462  1.0
  Ce4+  Ce308  1  0.31250000  0.12500000  0.17788462  1.0
  Ce4+  Ce309  1  0.31250000  0.37500000  0.17788462  1.0
  Ce4+  Ce310  1  0.31250000  0.62500000  0.17788462  1.0
  Ce4+  Ce311  1  0.31250000  0.87500000  0.17788462  1.0
  Ce4+  Ce312  1  0.56250000  0.12500000  0.17788462  1.0
  Ce4+  Ce313  1  0.56250000  0.37500000  0.17788462  1.0
  Ce4+  Ce314  1  0.56250000  0.62500000  0.17788462  1.0
  Ce4+  Ce315  1  0.56250000  0.87500000  0.17788462  1.0
  Ce4+  Ce316  1  0.81250000  0.12500000  0.17788462  1.0
  Ce4+  Ce317  1  0.81250000  0.37500000  0.17788462  1.0
  Ce4+  Ce318  1  0.81250000  0.62500000  0.17788462  1.0
  Ce4+  Ce319  1  0.81250000  0.87500000  0.17788462  1.0
  Ce4+  Ce320  1  0.18750000  0.25000000  0.20673077  1.0
  Ce4+  Ce321  1  0.18750000  0.50000000  0.20673077  1.0
  Ce4+  Ce322  1  0.18750000  0.75000000  0.20673077  1.0
  Ce4+  Ce323  1  0.18750000  0.00000000  0.20673077  1.0
  Ce4+  Ce324  1  0.43750000  0.25000000  0.20673077  1.0
  Ce4+  Ce325  1  0.43750000  0.50000000  0.20673077  1.0
  Ce4+  Ce326  1  0.43750000  0.75000000  0.20673077  1.0
  Ce4+  Ce327  1  0.43750000  0.00000000  0.20673077  1.0
  Ce4+  Ce328  1  0.68750000  0.25000000  0.20673077  1.0
  Ce4+  Ce329  1  0.68750000  0.50000000  0.20673077  1.0
  Ce4+  Ce330  1  0.68750000  0.75000000  0.20673077  1.0
  Ce4+  Ce331  1  0.68750000  0.00000000  0.20673077  1.0
  Ce4+  Ce332  1  0.93750000  0.25000000  0.20673077  1.0
  Ce4+  Ce333  1  0.93750000  0.50000000  0.20673077  1.0
  Ce4+  Ce334  1  0.93750000  0.75000000  0.20673077  1.0
  Ce4+  Ce335  1  0.93750000  0.00000000  0.20673077  1.0
  Ce4+  Ce336  1  0.06250000  0.12500000  0.19711538  1.0
  Ce4+  Ce337  1  0.06250000  0.37500000  0.19711538  1.0
  Ce4+  Ce338  1  0.06250000  0.62500000  0.19711538  1.0
  Ce4+  Ce339  1  0.06250000  0.87500000  0.19711538  1.0
  Ce4+  Ce340  1  0.31250000  0.12500000  0.19711538  1.0
  Ce4+  Ce341  1  0.31250000  0.37500000  0.19711538  1.0
  Ce4+  Ce342  1  0.31250000  0.62500000  0.19711538  1.0
  Ce4+  Ce343  1  0.31250000  0.87500000  0.19711538  1.0
  Ce4+  Ce344  1  0.56250000  0.12500000  0.19711538  1.0
  Ce4+  Ce345  1  0.56250000  0.37500000  0.19711538  1.0
  Ce4+  Ce346  1  0.56250000  0.62500000  0.19711538  1.0
  Ce4+  Ce347  1  0.56250000  0.87500000  0.19711538  1.0
  Ce4+  Ce348  1  0.81250000  0.12500000  0.19711538  1.0
  Ce4+  Ce349  1  0.81250000  0.37500000  0.19711538  1.0
  Ce4+  Ce350  1  0.81250000  0.62500000  0.19711538  1.0
  Ce4+  Ce351  1  0.81250000  0.87500000  0.19711538  1.0
  Ce4+  Ce352  1  0.18750000  0.25000000  0.22596154  1.0
  Ce4+  Ce353  1  0.18750000  0.50000000  0.22596154  1.0
  Ce4+  Ce354  1  0.18750000  0.75000000  0.22596154  1.0
  Ce4+  Ce355  1  0.18750000  0.00000000  0.22596154  1.0
  Ce4+  Ce356  1  0.43750000  0.25000000  0.22596154  1.0
  Ce4+  Ce357  1  0.43750000  0.50000000  0.22596154  1.0
  Ce4+  Ce358  1  0.43750000  0.75000000  0.22596154  1.0
  Ce4+  Ce359  1  0.43750000  0.00000000  0.22596154  1.0
  Ce4+  Ce360  1  0.68750000  0.25000000  0.22596154  1.0
  Ce4+  Ce361  1  0.68750000  0.50000000  0.22596154  1.0
  Ce4+  Ce362  1  0.68750000  0.75000000  0.22596154  1.0
  Ce4+  Ce363  1  0.68750000  0.00000000  0.22596154  1.0
  Ce4+  Ce364  1  0.93750000  0.25000000  0.22596154  1.0
  Ce4+  Ce365  1  0.93750000  0.50000000  0.22596154  1.0
  Ce4+  Ce366  1  0.93750000  0.75000000  0.22596154  1.0
  Ce4+  Ce367  1  0.93750000  0.00000000  0.22596154  1.0
  Ce4+  Ce368  1  0.06250000  0.12500000  0.21634615  1.0
  Ce4+  Ce369  1  0.06250000  0.37500000  0.21634615  1.0
  Ce4+  Ce370  1  0.06250000  0.62500000  0.21634615  1.0
  Ce4+  Ce371  1  0.06250000  0.87500000  0.21634615  1.0
  Ce4+  Ce372  1  0.31250000  0.12500000  0.21634615  1.0
  Ce4+  Ce373  1  0.31250000  0.37500000  0.21634615  1.0
  Ce4+  Ce374  1  0.31250000  0.62500000  0.21634615  1.0
  Ce4+  Ce375  1  0.31250000  0.87500000  0.21634615  1.0
  Ce4+  Ce376  1  0.56250000  0.12500000  0.21634615  1.0
  Ce4+  Ce377  1  0.56250000  0.37500000  0.21634615  1.0
  Ce4+  Ce378  1  0.56250000  0.62500000  0.21634615  1.0
  Ce4+  Ce379  1  0.56250000  0.87500000  0.21634615  1.0
  Ce4+  Ce380  1  0.81250000  0.12500000  0.21634615  1.0
  Ce4+  Ce381  1  0.81250000  0.37500000  0.21634615  1.0
  Ce4+  Ce382  1  0.81250000  0.62500000  0.21634615  1.0
  Ce4+  Ce383  1  0.81250000  0.87500000  0.21634615  1.0
  Ce4+  Ce384  1  0.18750000  0.25000000  0.24519231  1.0
  Ce4+  Ce385  1  0.18750000  0.50000000  0.24519231  1.0
  Ce4+  Ce386  1  0.18750000  0.75000000  0.24519231  1.0
  Ce4+  Ce387  1  0.18750000  0.00000000  0.24519231  1.0
  Ce4+  Ce388  1  0.43750000  0.25000000  0.24519231  1.0
  Ce4+  Ce389  1  0.43750000  0.50000000  0.24519231  1.0
  Ce4+  Ce390  1  0.43750000  0.75000000  0.24519231  1.0
  Ce4+  Ce391  1  0.43750000  0.00000000  0.24519231  1.0
  Ce4+  Ce392  1  0.68750000  0.25000000  0.24519231  1.0
  Ce4+  Ce393  1  0.68750000  0.50000000  0.24519231  1.0
  Ce4+  Ce394  1  0.68750000  0.75000000  0.24519231  1.0
  Ce4+  Ce395  1  0.68750000  0.00000000  0.24519231  1.0
  Ce4+  Ce396  1  0.93750000  0.25000000  0.24519231  1.0
  Ce4+  Ce397  1  0.93750000  0.50000000  0.24519231  1.0
  Ce4+  Ce398  1  0.93750000  0.75000000  0.24519231  1.0
  Ce4+  Ce399  1  0.93750000  0.00000000  0.24519231  1.0
  Ce4+  Ce400  1  0.06250000  0.12500000  0.23557692  1.0
  Ce4+  Ce401  1  0.06250000  0.37500000  0.23557692  1.0
  Ce4+  Ce402  1  0.06250000  0.62500000  0.23557692  1.0
  Ce4+  Ce403  1  0.06250000  0.87500000  0.23557692  1.0
  Ce4+  Ce404  1  0.31250000  0.12500000  0.23557692  1.0
  Ce4+  Ce405  1  0.31250000  0.37500000  0.23557692  1.0
  Ce4+  Ce406  1  0.31250000  0.62500000  0.23557692  1.0
  Ce4+  Ce407  1  0.31250000  0.87500000  0.23557692  1.0
  Ce4+  Ce408  1  0.56250000  0.12500000  0.23557692  1.0
  Ce4+  Ce409  1  0.56250000  0.37500000  0.23557692  1.0
  Ce4+  Ce410  1  0.56250000  0.62500000  0.23557692  1.0
  Ce4+  Ce411  1  0.56250000  0.87500000  0.23557692  1.0
  Ce4+  Ce412  1  0.81250000  0.12500000  0.23557692  1.0
  Ce4+  Ce413  1  0.81250000  0.37500000  0.23557692  1.0
  Ce4+  Ce414  1  0.81250000  0.62500000  0.23557692  1.0
  Ce4+  Ce415  1  0.81250000  0.87500000  0.23557692  1.0
  Ce4+  Ce416  1  0.18750000  0.25000000  0.26442308  1.0
  Ce4+  Ce417  1  0.18750000  0.50000000  0.26442308  1.0
  Ce4+  Ce418  1  0.18750000  0.75000000  0.26442308  1.0
  Ce4+  Ce419  1  0.18750000  0.00000000  0.26442308  1.0
  Ce4+  Ce420  1  0.43750000  0.25000000  0.26442308  1.0
  Ce4+  Ce421  1  0.43750000  0.50000000  0.26442308  1.0
  Ce4+  Ce422  1  0.43750000  0.75000000  0.26442308  1.0
  Ce4+  Ce423  1  0.43750000  0.00000000  0.26442308  1.0
  Ce4+  Ce424  1  0.68750000  0.25000000  0.26442308  1.0
  Ce4+  Ce425  1  0.68750000  0.50000000  0.26442308  1.0
  Ce4+  Ce426  1  0.68750000  0.75000000  0.26442308  1.0
  Ce4+  Ce427  1  0.68750000  0.00000000  0.26442308  1.0
  Ce4+  Ce428  1  0.93750000  0.25000000  0.26442308  1.0
  Ce4+  Ce429  1  0.93750000  0.50000000  0.26442308  1.0
  Ce4+  Ce430  1  0.93750000  0.75000000  0.26442308  1.0
  Ce4+  Ce431  1  0.93750000  0.00000000  0.26442308  1.0
  Ce4+  Ce432  1  0.06250000  0.12500000  0.25480769  1.0
  Ce4+  Ce433  1  0.06250000  0.37500000  0.25480769  1.0
  Ce4+  Ce434  1  0.06250000  0.62500000  0.25480769  1.0
  Ce4+  Ce435  1  0.06250000  0.87500000  0.25480769  1.0
  Ce4+  Ce436  1  0.31250000  0.12500000  0.25480769  1.0
  Ce4+  Ce437  1  0.31250000  0.37500000  0.25480769  1.0
  Ce4+  Ce438  1  0.31250000  0.62500000  0.25480769  1.0
  Ce4+  Ce439  1  0.31250000  0.87500000  0.25480769  1.0
  Ce4+  Ce440  1  0.56250000  0.12500000  0.25480769  1.0
  Ce4+  Ce441  1  0.56250000  0.37500000  0.25480769  1.0
  Ce4+  Ce442  1  0.56250000  0.62500000  0.25480769  1.0
  Ce4+  Ce443  1  0.56250000  0.87500000  0.25480769  1.0
  Ce4+  Ce444  1  0.81250000  0.12500000  0.25480769  1.0
  Ce4+  Ce445  1  0.81250000  0.37500000  0.25480769  1.0
  Ce4+  Ce446  1  0.81250000  0.62500000  0.25480769  1.0
  Ce4+  Ce447  1  0.81250000  0.87500000  0.25480769  1.0
  Ce4+  Ce448  1  0.18750000  0.25000000  0.28365385  1.0
  Ce4+  Ce449  1  0.18750000  0.50000000  0.28365385  1.0
  Ce4+  Ce450  1  0.18750000  0.75000000  0.28365385  1.0
  Ce4+  Ce451  1  0.18750000  0.00000000  0.28365385  1.0
  Ce4+  Ce452  1  0.43750000  0.25000000  0.28365385  1.0
  Ce4+  Ce453  1  0.43750000  0.50000000  0.28365385  1.0
  Ce4+  Ce454  1  0.43750000  0.75000000  0.28365385  1.0
  Ce4+  Ce455  1  0.43750000  0.00000000  0.28365385  1.0
  Ce4+  Ce456  1  0.68750000  0.25000000  0.28365385  1.0
  Ce4+  Ce457  1  0.68750000  0.50000000  0.28365385  1.0
  Ce4+  Ce458  1  0.68750000  0.75000000  0.28365385  1.0
  Ce4+  Ce459  1  0.68750000  0.00000000  0.28365385  1.0
  Ce4+  Ce460  1  0.93750000  0.25000000  0.28365385  1.0
  Ce4+  Ce461  1  0.93750000  0.50000000  0.28365385  1.0
  Ce4+  Ce462  1  0.93750000  0.75000000  0.28365385  1.0
  Ce4+  Ce463  1  0.93750000  0.00000000  0.28365385  1.0
  Ce4+  Ce464  1  0.06250000  0.12500000  0.27403846  1.0
  Ce4+  Ce465  1  0.06250000  0.37500000  0.27403846  1.0
  Ce4+  Ce466  1  0.06250000  0.62500000  0.27403846  1.0
  Ce4+  Ce467  1  0.06250000  0.87500000  0.27403846  1.0
  Ce4+  Ce468  1  0.31250000  0.12500000  0.27403846  1.0
  Ce4+  Ce469  1  0.31250000  0.37500000  0.27403846  1.0
  Ce4+  Ce470  1  0.31250000  0.62500000  0.27403846  1.0
  Ce4+  Ce471  1  0.31250000  0.87500000  0.27403846  1.0
  Ce4+  Ce472  1  0.56250000  0.12500000  0.27403846  1.0
  Ce4+  Ce473  1  0.56250000  0.37500000  0.27403846  1.0
  Ce4+  Ce474  1  0.56250000  0.62500000  0.27403846  1.0
  Ce4+  Ce475  1  0.56250000  0.87500000  0.27403846  1.0
  Ce4+  Ce476  1  0.81250000  0.12500000  0.27403846  1.0
  Ce4+  Ce477  1  0.81250000  0.37500000  0.27403846  1.0
  Ce4+  Ce478  1  0.81250000  0.62500000  0.27403846  1.0
  Ce4+  Ce479  1  0.81250000  0.87500000  0.27403846  1.0
  Ce4+  Ce480  1  0.18750000  0.25000000  0.30288462  1.0
  Ce4+  Ce481  1  0.18750000  0.50000000  0.30288462  1.0
  Ce4+  Ce482  1  0.18750000  0.75000000  0.30288462  1.0
  Ce4+  Ce483  1  0.18750000  0.00000000  0.30288462  1.0
  Ce4+  Ce484  1  0.43750000  0.25000000  0.30288462  1.0
  Ce4+  Ce485  1  0.43750000  0.50000000  0.30288462  1.0
  Ce4+  Ce486  1  0.43750000  0.75000000  0.30288462  1.0
  Ce4+  Ce487  1  0.43750000  0.00000000  0.30288462  1.0
  Ce4+  Ce488  1  0.68750000  0.25000000  0.30288462  1.0
  Ce4+  Ce489  1  0.68750000  0.50000000  0.30288462  1.0
  Ce4+  Ce490  1  0.68750000  0.75000000  0.30288462  1.0
  Ce4+  Ce491  1  0.68750000  0.00000000  0.30288462  1.0
  Ce4+  Ce492  1  0.93750000  0.25000000  0.30288462  1.0
  Ce4+  Ce493  1  0.93750000  0.50000000  0.30288462  1.0
  Ce4+  Ce494  1  0.93750000  0.75000000  0.30288462  1.0
  Ce4+  Ce495  1  0.93750000  0.00000000  0.30288462  1.0
  Ce4+  Ce496  1  0.06250000  0.12500000  0.29326923  1.0
  Ce4+  Ce497  1  0.06250000  0.37500000  0.29326923  1.0
  Ce4+  Ce498  1  0.06250000  0.62500000  0.29326923  1.0
  Ce4+  Ce499  1  0.06250000  0.87500000  0.29326923  1.0
  Ce4+  Ce500  1  0.31250000  0.12500000  0.29326923  1.0
  Ce4+  Ce501  1  0.31250000  0.37500000  0.29326923  1.0
  Ce4+  Ce502  1  0.31250000  0.62500000  0.29326923  1.0
  Ce4+  Ce503  1  0.31250000  0.87500000  0.29326923  1.0
  Ce4+  Ce504  1  0.56250000  0.12500000  0.29326923  1.0
  Ce4+  Ce505  1  0.56250000  0.37500000  0.29326923  1.0
  Ce4+  Ce506  1  0.56250000  0.62500000  0.29326923  1.0
  Ce4+  Ce507  1  0.56250000  0.87500000  0.29326923  1.0
  Ce4+  Ce508  1  0.81250000  0.12500000  0.29326923  1.0
  Ce4+  Ce509  1  0.81250000  0.37500000  0.29326923  1.0
  Ce4+  Ce510  1  0.81250000  0.62500000  0.29326923  1.0
  Ce4+  Ce511  1  0.81250000  0.87500000  0.29326923  1.0
  Ce4+  Ce512  1  0.18750000  0.25000000  0.32211538  1.0
  Ce4+  Ce513  1  0.18750000  0.50000000  0.32211538  1.0
  Ce4+  Ce514  1  0.18750000  0.75000000  0.32211538  1.0
  Ce4+  Ce515  1  0.18750000  0.00000000  0.32211538  1.0
  Ce4+  Ce516  1  0.43750000  0.25000000  0.32211538  1.0
  Ce4+  Ce517  1  0.43750000  0.50000000  0.32211538  1.0
  Ce4+  Ce518  1  0.43750000  0.75000000  0.32211538  1.0
  Ce4+  Ce519  1  0.43750000  0.00000000  0.32211538  1.0
  Ce4+  Ce520  1  0.68750000  0.25000000  0.32211538  1.0
  Ce4+  Ce521  1  0.68750000  0.50000000  0.32211538  1.0
  Ce4+  Ce522  1  0.68750000  0.75000000  0.32211538  1.0
  Ce4+  Ce523  1  0.68750000  0.00000000  0.32211538  1.0
  Ce4+  Ce524  1  0.93750000  0.25000000  0.32211538  1.0
  Ce4+  Ce525  1  0.93750000  0.50000000  0.32211538  1.0
  Ce4+  Ce526  1  0.93750000  0.75000000  0.32211538  1.0
  Ce4+  Ce527  1  0.93750000  0.00000000  0.32211538  1.0
  Ce4+  Ce528  1  0.06250000  0.12500000  0.31250000  1.0
  Ce4+  Ce529  1  0.06250000  0.37500000  0.31250000  1.0
  Ce4+  Ce530  1  0.06250000  0.62500000  0.31250000  1.0
  Ce4+  Ce531  1  0.06250000  0.87500000  0.31250000  1.0
  Ce4+  Ce532  1  0.31250000  0.12500000  0.31250000  1.0
  Ce4+  Ce533  1  0.31250000  0.37500000  0.31250000  1.0
  Ce4+  Ce534  1  0.31250000  0.62500000  0.31250000  1.0
  Ce4+  Ce535  1  0.31250000  0.87500000  0.31250000  1.0
  Ce4+  Ce536  1  0.56250000  0.12500000  0.31250000  1.0
  Ce4+  Ce537  1  0.56250000  0.37500000  0.31250000  1.0
  Ce4+  Ce538  1  0.56250000  0.62500000  0.31250000  1.0
  Ce4+  Ce539  1  0.56250000  0.87500000  0.31250000  1.0
  Ce4+  Ce540  1  0.81250000  0.12500000  0.31250000  1.0
  Ce4+  Ce541  1  0.81250000  0.37500000  0.31250000  1.0
  Ce4+  Ce542  1  0.81250000  0.62500000  0.31250000  1.0
  Ce4+  Ce543  1  0.81250000  0.87500000  0.31250000  1.0
  Ce4+  Ce544  1  0.18750000  0.00000000  0.34134615  1.0
  Ce4+  Ce545  1  0.18750000  0.25000000  0.34134615  1.0
  Ce4+  Ce546  1  0.18750000  0.50000000  0.34134615  1.0
  Ce4+  Ce547  1  0.18750000  0.75000000  0.34134615  1.0
  Ce4+  Ce548  1  0.43750000  0.00000000  0.34134615  1.0
  Ce4+  Ce549  1  0.43750000  0.25000000  0.34134615  1.0
  Ce4+  Ce550  1  0.43750000  0.50000000  0.34134615  1.0
  Ce4+  Ce551  1  0.43750000  0.75000000  0.34134615  1.0
  Ce4+  Ce552  1  0.68750000  0.00000000  0.34134615  1.0
  Ce4+  Ce553  1  0.68750000  0.25000000  0.34134615  1.0
  Ce4+  Ce554  1  0.68750000  0.50000000  0.34134615  1.0
  Ce4+  Ce555  1  0.68750000  0.75000000  0.34134615  1.0
  Ce4+  Ce556  1  0.93750000  0.00000000  0.34134615  1.0
  Ce4+  Ce557  1  0.93750000  0.25000000  0.34134615  1.0
  Ce4+  Ce558  1  0.93750000  0.50000000  0.34134615  1.0
  Ce4+  Ce559  1  0.93750000  0.75000000  0.34134615  1.0
  Ce4+  Ce560  1  0.06250000  0.12500000  0.33173077  1.0
  Ce4+  Ce561  1  0.06250000  0.37500000  0.33173077  1.0
  Ce4+  Ce562  1  0.06250000  0.62500000  0.33173077  1.0
  Ce4+  Ce563  1  0.06250000  0.87500000  0.33173077  1.0
  Ce4+  Ce564  1  0.31250000  0.12500000  0.33173077  1.0
  Ce4+  Ce565  1  0.31250000  0.37500000  0.33173077  1.0
  Ce4+  Ce566  1  0.31250000  0.62500000  0.33173077  1.0
  Ce4+  Ce567  1  0.31250000  0.87500000  0.33173077  1.0
  Ce4+  Ce568  1  0.56250000  0.12500000  0.33173077  1.0
  Ce4+  Ce569  1  0.56250000  0.37500000  0.33173077  1.0
  Ce4+  Ce570  1  0.56250000  0.62500000  0.33173077  1.0
  Ce4+  Ce571  1  0.56250000  0.87500000  0.33173077  1.0
  Ce4+  Ce572  1  0.81250000  0.12500000  0.33173077  1.0
  Ce4+  Ce573  1  0.81250000  0.37500000  0.33173077  1.0
  Ce4+  Ce574  1  0.81250000  0.62500000  0.33173077  1.0
  Ce4+  Ce575  1  0.81250000  0.87500000  0.33173077  1.0
  Ce4+  Ce576  1  0.18750000  0.25000000  0.36057692  1.0
  Ce4+  Ce577  1  0.18750000  0.50000000  0.36057692  1.0
  Ce4+  Ce578  1  0.18750000  0.75000000  0.36057692  1.0
  Ce4+  Ce579  1  0.18750000  0.00000000  0.36057692  1.0
  Ce4+  Ce580  1  0.43750000  0.25000000  0.36057692  1.0
  Ce4+  Ce581  1  0.43750000  0.50000000  0.36057692  1.0
  Ce4+  Ce582  1  0.43750000  0.75000000  0.36057692  1.0
  Ce4+  Ce583  1  0.43750000  0.00000000  0.36057692  1.0
  Ce4+  Ce584  1  0.68750000  0.25000000  0.36057692  1.0
  Ce4+  Ce585  1  0.68750000  0.50000000  0.36057692  1.0
  Ce4+  Ce586  1  0.68750000  0.75000000  0.36057692  1.0
  Ce4+  Ce587  1  0.68750000  0.00000000  0.36057692  1.0
  Ce4+  Ce588  1  0.93750000  0.25000000  0.36057692  1.0
  Ce4+  Ce589  1  0.93750000  0.50000000  0.36057692  1.0
  Ce4+  Ce590  1  0.93750000  0.75000000  0.36057692  1.0
  Ce4+  Ce591  1  0.93750000  0.00000000  0.36057692  1.0
  Ce4+  Ce592  1  0.06250000  0.12500000  0.35096154  1.0
  Ce4+  Ce593  1  0.06250000  0.37500000  0.35096154  1.0
  Ce4+  Ce594  1  0.06250000  0.62500000  0.35096154  1.0
  Ce4+  Ce595  1  0.06250000  0.87500000  0.35096154  1.0
  Ce4+  Ce596  1  0.31250000  0.12500000  0.35096154  1.0
  Ce4+  Ce597  1  0.31250000  0.37500000  0.35096154  1.0
  Ce4+  Ce598  1  0.31250000  0.62500000  0.35096154  1.0
  Ce4+  Ce599  1  0.31250000  0.87500000  0.35096154  1.0
  Ce4+  Ce600  1  0.56250000  0.12500000  0.35096154  1.0
  Ce4+  Ce601  1  0.56250000  0.37500000  0.35096154  1.0
  Ce4+  Ce602  1  0.56250000  0.62500000  0.35096154  1.0
  Ce4+  Ce603  1  0.56250000  0.87500000  0.35096154  1.0
  Ce4+  Ce604  1  0.81250000  0.12500000  0.35096154  1.0
  Ce4+  Ce605  1  0.81250000  0.37500000  0.35096154  1.0
  Ce4+  Ce606  1  0.81250000  0.62500000  0.35096154  1.0
  Ce4+  Ce607  1  0.81250000  0.87500000  0.35096154  1.0
  Ce4+  Ce608  1  0.18750000  0.25000000  0.37980769  1.0
  Ce4+  Ce609  1  0.18750000  0.50000000  0.37980769  1.0
  Ce4+  Ce610  1  0.18750000  0.75000000  0.37980769  1.0
  Ce4+  Ce611  1  0.18750000  0.00000000  0.37980769  1.0
  Ce4+  Ce612  1  0.43750000  0.25000000  0.37980769  1.0
  Ce4+  Ce613  1  0.43750000  0.50000000  0.37980769  1.0
  Ce4+  Ce614  1  0.43750000  0.75000000  0.37980769  1.0
  Ce4+  Ce615  1  0.43750000  0.00000000  0.37980769  1.0
  Ce4+  Ce616  1  0.68750000  0.25000000  0.37980769  1.0
  Ce4+  Ce617  1  0.68750000  0.50000000  0.37980769  1.0
  Ce4+  Ce618  1  0.68750000  0.75000000  0.37980769  1.0
  Ce4+  Ce619  1  0.68750000  0.00000000  0.37980769  1.0
  Ce4+  Ce620  1  0.93750000  0.25000000  0.37980769  1.0
  Ce4+  Ce621  1  0.93750000  0.50000000  0.37980769  1.0
  Ce4+  Ce622  1  0.93750000  0.75000000  0.37980769  1.0
  Ce4+  Ce623  1  0.93750000  0.00000000  0.37980769  1.0
  Ce4+  Ce624  1  0.06250000  0.12500000  0.37019231  1.0
  Ce4+  Ce625  1  0.06250000  0.37500000  0.37019231  1.0
  Ce4+  Ce626  1  0.06250000  0.62500000  0.37019231  1.0
  Ce4+  Ce627  1  0.06250000  0.87500000  0.37019231  1.0
  Ce4+  Ce628  1  0.31250000  0.12500000  0.37019231  1.0
  Ce4+  Ce629  1  0.31250000  0.37500000  0.37019231  1.0
  Ce4+  Ce630  1  0.31250000  0.62500000  0.37019231  1.0
  Ce4+  Ce631  1  0.31250000  0.87500000  0.37019231  1.0
  Ce4+  Ce632  1  0.56250000  0.12500000  0.37019231  1.0
  Ce4+  Ce633  1  0.56250000  0.37500000  0.37019231  1.0
  Ce4+  Ce634  1  0.56250000  0.62500000  0.37019231  1.0
  Ce4+  Ce635  1  0.56250000  0.87500000  0.37019231  1.0
  Ce4+  Ce636  1  0.81250000  0.12500000  0.37019231  1.0
  Ce4+  Ce637  1  0.81250000  0.37500000  0.37019231  1.0
  Ce4+  Ce638  1  0.81250000  0.62500000  0.37019231  1.0
  Ce4+  Ce639  1  0.81250000  0.87500000  0.37019231  1.0
  O2-  O640  1  0.18750000  0.18750000  0.00480769  1.0
  O2-  O641  1  0.18750000  0.43750000  0.00480769  1.0
  O2-  O642  1  0.18750000  0.68750000  0.00480769  1.0
  O2-  O643  1  0.18750000  0.93750000  0.00480769  1.0
  O2-  O644  1  0.43750000  0.18750000  0.00480769  1.0
  O2-  O645  1  0.43750000  0.43750000  0.00480769  1.0
  O2-  O646  1  0.43750000  0.68750000  0.00480769  1.0
  O2-  O647  1  0.43750000  0.93750000  0.00480769  1.0
  O2-  O648  1  0.68750000  0.18750000  0.00480769  1.0
  O2-  O649  1  0.68750000  0.43750000  0.00480769  1.0
  O2-  O650  1  0.68750000  0.68750000  0.00480769  1.0
  O2-  O651  1  0.68750000  0.93750000  0.00480769  1.0
  O2-  O652  1  0.93750000  0.18750000  0.00480769  1.0
  O2-  O653  1  0.93750000  0.43750000  0.00480769  1.0
  O2-  O654  1  0.93750000  0.68750000  0.00480769  1.0
  O2-  O655  1  0.93750000  0.93750000  0.00480769  1.0
  O2-  O656  1  0.18750000  0.06250000  0.00480769  1.0
  O2-  O657  1  0.18750000  0.31250000  0.00480769  1.0
  O2-  O658  1  0.18750000  0.56250000  0.00480769  1.0
  O2-  O659  1  0.18750000  0.81250000  0.00480769  1.0
  O2-  O660  1  0.43750000  0.06250000  0.00480769  1.0
  O2-  O661  1  0.43750000  0.31250000  0.00480769  1.0
  O2-  O662  1  0.43750000  0.56250000  0.00480769  1.0
  O2-  O663  1  0.43750000  0.81250000  0.00480769  1.0
  O2-  O664  1  0.68750000  0.06250000  0.00480769  1.0
  O2-  O665  1  0.68750000  0.31250000  0.00480769  1.0
  O2-  O666  1  0.68750000  0.56250000  0.00480769  1.0
  O2-  O667  1  0.68750000  0.81250000  0.00480769  1.0
  O2-  O668  1  0.93750000  0.06250000  0.00480769  1.0
  O2-  O669  1  0.93750000  0.31250000  0.00480769  1.0
  O2-  O670  1  0.93750000  0.56250000  0.00480769  1.0
  O2-  O671  1  0.93750000  0.81250000  0.00480769  1.0
  O2-  O672  1  0.06250000  0.18750000  0.01442308  1.0
  O2-  O673  1  0.06250000  0.43750000  0.01442308  1.0
  O2-  O674  1  0.06250000  0.68750000  0.01442308  1.0
  O2-  O675  1  0.06250000  0.93750000  0.01442308  1.0
  O2-  O676  1  0.31250000  0.18750000  0.01442308  1.0
  O2-  O677  1  0.31250000  0.43750000  0.01442308  1.0
  O2-  O678  1  0.31250000  0.68750000  0.01442308  1.0
  O2-  O679  1  0.31250000  0.93750000  0.01442308  1.0
  O2-  O680  1  0.56250000  0.18750000  0.01442308  1.0
  O2-  O681  1  0.56250000  0.43750000  0.01442308  1.0
  O2-  O682  1  0.56250000  0.68750000  0.01442308  1.0
  O2-  O683  1  0.56250000  0.93750000  0.01442308  1.0
  O2-  O684  1  0.81250000  0.18750000  0.01442308  1.0
  O2-  O685  1  0.81250000  0.43750000  0.01442308  1.0
  O2-  O686  1  0.81250000  0.68750000  0.01442308  1.0
  O2-  O687  1  0.81250000  0.93750000  0.01442308  1.0
  O2-  O688  1  0.06250000  0.06250000  0.01442308  1.0
  O2-  O689  1  0.06250000  0.31250000  0.01442308  1.0
  O2-  O690  1  0.06250000  0.56250000  0.01442308  1.0
  O2-  O691  1  0.06250000  0.81250000  0.01442308  1.0
  O2-  O692  1  0.31250000  0.06250000  0.01442308  1.0
  O2-  O693  1  0.31250000  0.31250000  0.01442308  1.0
  O2-  O694  1  0.31250000  0.56250000  0.01442308  1.0
  O2-  O695  1  0.31250000  0.81250000  0.01442308  1.0
  O2-  O696  1  0.56250000  0.06250000  0.01442308  1.0
  O2-  O697  1  0.56250000  0.31250000  0.01442308  1.0
  O2-  O698  1  0.56250000  0.56250000  0.01442308  1.0
  O2-  O699  1  0.56250000  0.81250000  0.01442308  1.0
  O2-  O700  1  0.81250000  0.06250000  0.01442308  1.0
  O2-  O701  1  0.81250000  0.31250000  0.01442308  1.0
  O2-  O702  1  0.81250000  0.56250000  0.01442308  1.0
  O2-  O703  1  0.81250000  0.81250000  0.01442308  1.0
  O2-  O704  1  0.18750000  0.18750000  0.02403846  1.0
  O2-  O705  1  0.18750000  0.43750000  0.02403846  1.0
  O2-  O706  1  0.18750000  0.68750000  0.02403846  1.0
  O2-  O707  1  0.18750000  0.93750000  0.02403846  1.0
  O2-  O708  1  0.43750000  0.18750000  0.02403846  1.0
  O2-  O709  1  0.43750000  0.43750000  0.02403846  1.0
  O2-  O710  1  0.43750000  0.68750000  0.02403846  1.0
  O2-  O711  1  0.43750000  0.93750000  0.02403846  1.0
  O2-  O712  1  0.68750000  0.18750000  0.02403846  1.0
  O2-  O713  1  0.68750000  0.43750000  0.02403846  1.0
  O2-  O714  1  0.68750000  0.68750000  0.02403846  1.0
  O2-  O715  1  0.68750000  0.93750000  0.02403846  1.0
  O2-  O716  1  0.93750000  0.18750000  0.02403846  1.0
  O2-  O717  1  0.93750000  0.43750000  0.02403846  1.0
  O2-  O718  1  0.93750000  0.68750000  0.02403846  1.0
  O2-  O719  1  0.93750000  0.93750000  0.02403846  1.0
  O2-  O720  1  0.18750000  0.06250000  0.02403846  1.0
  O2-  O721  1  0.18750000  0.31250000  0.02403846  1.0
  O2-  O722  1  0.18750000  0.56250000  0.02403846  1.0
  O2-  O723  1  0.18750000  0.81250000  0.02403846  1.0
  O2-  O724  1  0.43750000  0.06250000  0.02403846  1.0
  O2-  O725  1  0.43750000  0.31250000  0.02403846  1.0
  O2-  O726  1  0.43750000  0.56250000  0.02403846  1.0
  O2-  O727  1  0.43750000  0.81250000  0.02403846  1.0
  O2-  O728  1  0.68750000  0.06250000  0.02403846  1.0
  O2-  O729  1  0.68750000  0.31250000  0.02403846  1.0
  O2-  O730  1  0.68750000  0.56250000  0.02403846  1.0
  O2-  O731  1  0.68750000  0.81250000  0.02403846  1.0
  O2-  O732  1  0.93750000  0.06250000  0.02403846  1.0
  O2-  O733  1  0.93750000  0.31250000  0.02403846  1.0
  O2-  O734  1  0.93750000  0.56250000  0.02403846  1.0
  O2-  O735  1  0.93750000  0.81250000  0.02403846  1.0
  O2-  O736  1  0.06250000  0.18750000  0.03365385  1.0
  O2-  O737  1  0.06250000  0.43750000  0.03365385  1.0
  O2-  O738  1  0.06250000  0.68750000  0.03365385  1.0
  O2-  O739  1  0.06250000  0.93750000  0.03365385  1.0
  O2-  O740  1  0.31250000  0.18750000  0.03365385  1.0
  O2-  O741  1  0.31250000  0.43750000  0.03365385  1.0
  O2-  O742  1  0.31250000  0.68750000  0.03365385  1.0
  O2-  O743  1  0.31250000  0.93750000  0.03365385  1.0
  O2-  O744  1  0.56250000  0.18750000  0.03365385  1.0
  O2-  O745  1  0.56250000  0.43750000  0.03365385  1.0
  O2-  O746  1  0.56250000  0.68750000  0.03365385  1.0
  O2-  O747  1  0.56250000  0.93750000  0.03365385  1.0
  O2-  O748  1  0.81250000  0.18750000  0.03365385  1.0
  O2-  O749  1  0.81250000  0.43750000  0.03365385  1.0
  O2-  O750  1  0.81250000  0.68750000  0.03365385  1.0
  O2-  O751  1  0.81250000  0.93750000  0.03365385  1.0
  O2-  O752  1  0.06250000  0.06250000  0.03365385  1.0
  O2-  O753  1  0.06250000  0.31250000  0.03365385  1.0
  O2-  O754  1  0.06250000  0.56250000  0.03365385  1.0
  O2-  O755  1  0.06250000  0.81250000  0.03365385  1.0
  O2-  O756  1  0.31250000  0.06250000  0.03365385  1.0
  O2-  O757  1  0.31250000  0.31250000  0.03365385  1.0
  O2-  O758  1  0.31250000  0.56250000  0.03365385  1.0
  O2-  O759  1  0.31250000  0.81250000  0.03365385  1.0
  O2-  O760  1  0.56250000  0.06250000  0.03365385  1.0
  O2-  O761  1  0.56250000  0.31250000  0.03365385  1.0
  O2-  O762  1  0.56250000  0.56250000  0.03365385  1.0
  O2-  O763  1  0.56250000  0.81250000  0.03365385  1.0
  O2-  O764  1  0.81250000  0.06250000  0.03365385  1.0
  O2-  O765  1  0.81250000  0.31250000  0.03365385  1.0
  O2-  O766  1  0.81250000  0.56250000  0.03365385  1.0
  O2-  O767  1  0.81250000  0.81250000  0.03365385  1.0
  O2-  O768  1  0.18750000  0.18750000  0.04326923  1.0
  O2-  O769  1  0.18750000  0.43750000  0.04326923  1.0
  O2-  O770  1  0.18750000  0.68750000  0.04326923  1.0
  O2-  O771  1  0.18750000  0.93750000  0.04326923  1.0
  O2-  O772  1  0.43750000  0.18750000  0.04326923  1.0
  O2-  O773  1  0.43750000  0.43750000  0.04326923  1.0
  O2-  O774  1  0.43750000  0.68750000  0.04326923  1.0
  O2-  O775  1  0.43750000  0.93750000  0.04326923  1.0
  O2-  O776  1  0.68750000  0.18750000  0.04326923  1.0
  O2-  O777  1  0.68750000  0.43750000  0.04326923  1.0
  O2-  O778  1  0.68750000  0.68750000  0.04326923  1.0
  O2-  O779  1  0.68750000  0.93750000  0.04326923  1.0
  O2-  O780  1  0.93750000  0.18750000  0.04326923  1.0
  O2-  O781  1  0.93750000  0.43750000  0.04326923  1.0
  O2-  O782  1  0.93750000  0.68750000  0.04326923  1.0
  O2-  O783  1  0.93750000  0.93750000  0.04326923  1.0
  O2-  O784  1  0.18750000  0.06250000  0.04326923  1.0
  O2-  O785  1  0.18750000  0.31250000  0.04326923  1.0
  O2-  O786  1  0.18750000  0.56250000  0.04326923  1.0
  O2-  O787  1  0.18750000  0.81250000  0.04326923  1.0
  O2-  O788  1  0.43750000  0.06250000  0.04326923  1.0
  O2-  O789  1  0.43750000  0.31250000  0.04326923  1.0
  O2-  O790  1  0.43750000  0.56250000  0.04326923  1.0
  O2-  O791  1  0.43750000  0.81250000  0.04326923  1.0
  O2-  O792  1  0.68750000  0.06250000  0.04326923  1.0
  O2-  O793  1  0.68750000  0.31250000  0.04326923  1.0
  O2-  O794  1  0.68750000  0.56250000  0.04326923  1.0
  O2-  O795  1  0.68750000  0.81250000  0.04326923  1.0
  O2-  O796  1  0.93750000  0.06250000  0.04326923  1.0
  O2-  O797  1  0.93750000  0.31250000  0.04326923  1.0
  O2-  O798  1  0.93750000  0.56250000  0.04326923  1.0
  O2-  O799  1  0.93750000  0.81250000  0.04326923  1.0
  O2-  O800  1  0.06250000  0.18750000  0.05288462  1.0
  O2-  O801  1  0.06250000  0.43750000  0.05288462  1.0
  O2-  O802  1  0.06250000  0.68750000  0.05288462  1.0
  O2-  O803  1  0.06250000  0.93750000  0.05288462  1.0
  O2-  O804  1  0.31250000  0.18750000  0.05288462  1.0
  O2-  O805  1  0.31250000  0.43750000  0.05288462  1.0
  O2-  O806  1  0.31250000  0.68750000  0.05288462  1.0
  O2-  O807  1  0.31250000  0.93750000  0.05288462  1.0
  O2-  O808  1  0.56250000  0.18750000  0.05288462  1.0
  O2-  O809  1  0.56250000  0.43750000  0.05288462  1.0
  O2-  O810  1  0.56250000  0.68750000  0.05288462  1.0
  O2-  O811  1  0.56250000  0.93750000  0.05288462  1.0
  O2-  O812  1  0.81250000  0.18750000  0.05288462  1.0
  O2-  O813  1  0.81250000  0.43750000  0.05288462  1.0
  O2-  O814  1  0.81250000  0.68750000  0.05288462  1.0
  O2-  O815  1  0.81250000  0.93750000  0.05288462  1.0
  O2-  O816  1  0.06250000  0.06250000  0.05288462  1.0
  O2-  O817  1  0.06250000  0.31250000  0.05288462  1.0
  O2-  O818  1  0.06250000  0.56250000  0.05288462  1.0
  O2-  O819  1  0.06250000  0.81250000  0.05288462  1.0
  O2-  O820  1  0.31250000  0.06250000  0.05288462  1.0
  O2-  O821  1  0.31250000  0.31250000  0.05288462  1.0
  O2-  O822  1  0.31250000  0.56250000  0.05288462  1.0
  O2-  O823  1  0.31250000  0.81250000  0.05288462  1.0
  O2-  O824  1  0.56250000  0.06250000  0.05288462  1.0
  O2-  O825  1  0.56250000  0.31250000  0.05288462  1.0
  O2-  O826  1  0.56250000  0.56250000  0.05288462  1.0
  O2-  O827  1  0.56250000  0.81250000  0.05288462  1.0
  O2-  O828  1  0.81250000  0.06250000  0.05288462  1.0
  O2-  O829  1  0.81250000  0.31250000  0.05288462  1.0
  O2-  O830  1  0.81250000  0.56250000  0.05288462  1.0
  O2-  O831  1  0.81250000  0.81250000  0.05288462  1.0
  O2-  O832  1  0.18750000  0.18750000  0.06250000  1.0
  O2-  O833  1  0.18750000  0.43750000  0.06250000  1.0
  O2-  O834  1  0.18750000  0.68750000  0.06250000  1.0
  O2-  O835  1  0.18750000  0.93750000  0.06250000  1.0
  O2-  O836  1  0.43750000  0.18750000  0.06250000  1.0
  O2-  O837  1  0.43750000  0.43750000  0.06250000  1.0
  O2-  O838  1  0.43750000  0.68750000  0.06250000  1.0
  O2-  O839  1  0.43750000  0.93750000  0.06250000  1.0
  O2-  O840  1  0.68750000  0.18750000  0.06250000  1.0
  O2-  O841  1  0.68750000  0.43750000  0.06250000  1.0
  O2-  O842  1  0.68750000  0.68750000  0.06250000  1.0
  O2-  O843  1  0.68750000  0.93750000  0.06250000  1.0
  O2-  O844  1  0.93750000  0.18750000  0.06250000  1.0
  O2-  O845  1  0.93750000  0.43750000  0.06250000  1.0
  O2-  O846  1  0.93750000  0.68750000  0.06250000  1.0
  O2-  O847  1  0.93750000  0.93750000  0.06250000  1.0
  O2-  O848  1  0.18750000  0.06250000  0.06250000  1.0
  O2-  O849  1  0.18750000  0.31250000  0.06250000  1.0
  O2-  O850  1  0.18750000  0.56250000  0.06250000  1.0
  O2-  O851  1  0.18750000  0.81250000  0.06250000  1.0
  O2-  O852  1  0.43750000  0.06250000  0.06250000  1.0
  O2-  O853  1  0.43750000  0.31250000  0.06250000  1.0
  O2-  O854  1  0.43750000  0.56250000  0.06250000  1.0
  O2-  O855  1  0.43750000  0.81250000  0.06250000  1.0
  O2-  O856  1  0.68750000  0.06250000  0.06250000  1.0
  O2-  O857  1  0.68750000  0.31250000  0.06250000  1.0
  O2-  O858  1  0.68750000  0.56250000  0.06250000  1.0
  O2-  O859  1  0.68750000  0.81250000  0.06250000  1.0
  O2-  O860  1  0.93750000  0.06250000  0.06250000  1.0
  O2-  O861  1  0.93750000  0.31250000  0.06250000  1.0
  O2-  O862  1  0.93750000  0.56250000  0.06250000  1.0
  O2-  O863  1  0.93750000  0.81250000  0.06250000  1.0
  O2-  O864  1  0.06250000  0.18750000  0.07211538  1.0
  O2-  O865  1  0.06250000  0.43750000  0.07211538  1.0
  O2-  O866  1  0.06250000  0.68750000  0.07211538  1.0
  O2-  O867  1  0.06250000  0.93750000  0.07211538  1.0
  O2-  O868  1  0.31250000  0.18750000  0.07211538  1.0
  O2-  O869  1  0.31250000  0.43750000  0.07211538  1.0
  O2-  O870  1  0.31250000  0.68750000  0.07211538  1.0
  O2-  O871  1  0.31250000  0.93750000  0.07211538  1.0
  O2-  O872  1  0.56250000  0.18750000  0.07211538  1.0
  O2-  O873  1  0.56250000  0.43750000  0.07211538  1.0
  O2-  O874  1  0.56250000  0.68750000  0.07211538  1.0
  O2-  O875  1  0.56250000  0.93750000  0.07211538  1.0
  O2-  O876  1  0.81250000  0.18750000  0.07211538  1.0
  O2-  O877  1  0.81250000  0.43750000  0.07211538  1.0
  O2-  O878  1  0.81250000  0.68750000  0.07211538  1.0
  O2-  O879  1  0.81250000  0.93750000  0.07211538  1.0
  O2-  O880  1  0.06250000  0.06250000  0.07211538  1.0
  O2-  O881  1  0.06250000  0.31250000  0.07211538  1.0
  O2-  O882  1  0.06250000  0.56250000  0.07211538  1.0
  O2-  O883  1  0.06250000  0.81250000  0.07211538  1.0
  O2-  O884  1  0.31250000  0.06250000  0.07211538  1.0
  O2-  O885  1  0.31250000  0.31250000  0.07211538  1.0
  O2-  O886  1  0.31250000  0.56250000  0.07211538  1.0
  O2-  O887  1  0.31250000  0.81250000  0.07211538  1.0
  O2-  O888  1  0.56250000  0.06250000  0.07211538  1.0
  O2-  O889  1  0.56250000  0.31250000  0.07211538  1.0
  O2-  O890  1  0.56250000  0.56250000  0.07211538  1.0
  O2-  O891  1  0.56250000  0.81250000  0.07211538  1.0
  O2-  O892  1  0.81250000  0.06250000  0.07211538  1.0
  O2-  O893  1  0.81250000  0.31250000  0.07211538  1.0
  O2-  O894  1  0.81250000  0.56250000  0.07211538  1.0
  O2-  O895  1  0.81250000  0.81250000  0.07211538  1.0
  O2-  O896  1  0.18750000  0.18750000  0.08173077  1.0
  O2-  O897  1  0.18750000  0.43750000  0.08173077  1.0
  O2-  O898  1  0.18750000  0.68750000  0.08173077  1.0
  O2-  O899  1  0.18750000  0.93750000  0.08173077  1.0
  O2-  O900  1  0.43750000  0.18750000  0.08173077  1.0
  O2-  O901  1  0.43750000  0.43750000  0.08173077  1.0
  O2-  O902  1  0.43750000  0.68750000  0.08173077  1.0
  O2-  O903  1  0.43750000  0.93750000  0.08173077  1.0
  O2-  O904  1  0.68750000  0.18750000  0.08173077  1.0
  O2-  O905  1  0.68750000  0.43750000  0.08173077  1.0
  O2-  O906  1  0.68750000  0.68750000  0.08173077  1.0
  O2-  O907  1  0.68750000  0.93750000  0.08173077  1.0
  O2-  O908  1  0.93750000  0.18750000  0.08173077  1.0
  O2-  O909  1  0.93750000  0.43750000  0.08173077  1.0
  O2-  O910  1  0.93750000  0.68750000  0.08173077  1.0
  O2-  O911  1  0.93750000  0.93750000  0.08173077  1.0
  O2-  O912  1  0.18750000  0.06250000  0.08173077  1.0
  O2-  O913  1  0.18750000  0.31250000  0.08173077  1.0
  O2-  O914  1  0.18750000  0.56250000  0.08173077  1.0
  O2-  O915  1  0.18750000  0.81250000  0.08173077  1.0
  O2-  O916  1  0.43750000  0.06250000  0.08173077  1.0
  O2-  O917  1  0.43750000  0.31250000  0.08173077  1.0
  O2-  O918  1  0.43750000  0.56250000  0.08173077  1.0
  O2-  O919  1  0.43750000  0.81250000  0.08173077  1.0
  O2-  O920  1  0.68750000  0.06250000  0.08173077  1.0
  O2-  O921  1  0.68750000  0.31250000  0.08173077  1.0
  O2-  O922  1  0.68750000  0.56250000  0.08173077  1.0
  O2-  O923  1  0.68750000  0.81250000  0.08173077  1.0
  O2-  O924  1  0.93750000  0.06250000  0.08173077  1.0
  O2-  O925  1  0.93750000  0.31250000  0.08173077  1.0
  O2-  O926  1  0.93750000  0.56250000  0.08173077  1.0
  O2-  O927  1  0.93750000  0.81250000  0.08173077  1.0
  O2-  O928  1  0.06250000  0.18750000  0.09134615  1.0
  O2-  O929  1  0.06250000  0.43750000  0.09134615  1.0
  O2-  O930  1  0.06250000  0.68750000  0.09134615  1.0
  O2-  O931  1  0.06250000  0.93750000  0.09134615  1.0
  O2-  O932  1  0.31250000  0.18750000  0.09134615  1.0
  O2-  O933  1  0.31250000  0.43750000  0.09134615  1.0
  O2-  O934  1  0.31250000  0.68750000  0.09134615  1.0
  O2-  O935  1  0.31250000  0.93750000  0.09134615  1.0
  O2-  O936  1  0.56250000  0.18750000  0.09134615  1.0
  O2-  O937  1  0.56250000  0.43750000  0.09134615  1.0
  O2-  O938  1  0.56250000  0.68750000  0.09134615  1.0
  O2-  O939  1  0.56250000  0.93750000  0.09134615  1.0
  O2-  O940  1  0.81250000  0.18750000  0.09134615  1.0
  O2-  O941  1  0.81250000  0.43750000  0.09134615  1.0
  O2-  O942  1  0.81250000  0.68750000  0.09134615  1.0
  O2-  O943  1  0.81250000  0.93750000  0.09134615  1.0
  O2-  O944  1  0.06250000  0.06250000  0.09134615  1.0
  O2-  O945  1  0.06250000  0.31250000  0.09134615  1.0
  O2-  O946  1  0.06250000  0.56250000  0.09134615  1.0
  O2-  O947  1  0.06250000  0.81250000  0.09134615  1.0
  O2-  O948  1  0.31250000  0.06250000  0.09134615  1.0
  O2-  O949  1  0.31250000  0.31250000  0.09134615  1.0
  O2-  O950  1  0.31250000  0.56250000  0.09134615  1.0
  O2-  O951  1  0.31250000  0.81250000  0.09134615  1.0
  O2-  O952  1  0.56250000  0.06250000  0.09134615  1.0
  O2-  O953  1  0.56250000  0.31250000  0.09134615  1.0
  O2-  O954  1  0.56250000  0.56250000  0.09134615  1.0
  O2-  O955  1  0.56250000  0.81250000  0.09134615  1.0
  O2-  O956  1  0.81250000  0.06250000  0.09134615  1.0
  O2-  O957  1  0.81250000  0.31250000  0.09134615  1.0
  O2-  O958  1  0.81250000  0.56250000  0.09134615  1.0
  O2-  O959  1  0.81250000  0.81250000  0.09134615  1.0
  O2-  O960  1  0.18750000  0.18750000  0.10096154  1.0
  O2-  O961  1  0.18750000  0.43750000  0.10096154  1.0
  O2-  O962  1  0.18750000  0.68750000  0.10096154  1.0
  O2-  O963  1  0.18750000  0.93750000  0.10096154  1.0
  O2-  O964  1  0.43750000  0.18750000  0.10096154  1.0
  O2-  O965  1  0.43750000  0.43750000  0.10096154  1.0
  O2-  O966  1  0.43750000  0.68750000  0.10096154  1.0
  O2-  O967  1  0.43750000  0.93750000  0.10096154  1.0
  O2-  O968  1  0.68750000  0.18750000  0.10096154  1.0
  O2-  O969  1  0.68750000  0.43750000  0.10096154  1.0
  O2-  O970  1  0.68750000  0.68750000  0.10096154  1.0
  O2-  O971  1  0.68750000  0.93750000  0.10096154  1.0
  O2-  O972  1  0.93750000  0.18750000  0.10096154  1.0
  O2-  O973  1  0.93750000  0.43750000  0.10096154  1.0
  O2-  O974  1  0.93750000  0.68750000  0.10096154  1.0
  O2-  O975  1  0.93750000  0.93750000  0.10096154  1.0
  O2-  O976  1  0.18750000  0.06250000  0.10096154  1.0
  O2-  O977  1  0.18750000  0.31250000  0.10096154  1.0
  O2-  O978  1  0.18750000  0.56250000  0.10096154  1.0
  O2-  O979  1  0.18750000  0.81250000  0.10096154  1.0
  O2-  O980  1  0.43750000  0.06250000  0.10096154  1.0
  O2-  O981  1  0.43750000  0.31250000  0.10096154  1.0
  O2-  O982  1  0.43750000  0.56250000  0.10096154  1.0
  O2-  O983  1  0.43750000  0.81250000  0.10096154  1.0
  O2-  O984  1  0.68750000  0.06250000  0.10096154  1.0
  O2-  O985  1  0.68750000  0.31250000  0.10096154  1.0
  O2-  O986  1  0.68750000  0.56250000  0.10096154  1.0
  O2-  O987  1  0.68750000  0.81250000  0.10096154  1.0
  O2-  O988  1  0.93750000  0.06250000  0.10096154  1.0
  O2-  O989  1  0.93750000  0.31250000  0.10096154  1.0
  O2-  O990  1  0.93750000  0.56250000  0.10096154  1.0
  O2-  O991  1  0.93750000  0.81250000  0.10096154  1.0
  O2-  O992  1  0.06250000  0.18750000  0.11057692  1.0
  O2-  O993  1  0.06250000  0.43750000  0.11057692  1.0
  O2-  O994  1  0.06250000  0.68750000  0.11057692  1.0
  O2-  O995  1  0.06250000  0.93750000  0.11057692  1.0
  O2-  O996  1  0.31250000  0.18750000  0.11057692  1.0
  O2-  O997  1  0.31250000  0.43750000  0.11057692  1.0
  O2-  O998  1  0.31250000  0.68750000  0.11057692  1.0
  O2-  O999  1  0.31250000  0.93750000  0.11057692  1.0
  O2-  O1000  1  0.56250000  0.18750000  0.11057692  1.0
  O2-  O1001  1  0.56250000  0.43750000  0.11057692  1.0
  O2-  O1002  1  0.56250000  0.68750000  0.11057692  1.0
  O2-  O1003  1  0.56250000  0.93750000  0.11057692  1.0
  O2-  O1004  1  0.81250000  0.18750000  0.11057692  1.0
  O2-  O1005  1  0.81250000  0.43750000  0.11057692  1.0
  O2-  O1006  1  0.81250000  0.68750000  0.11057692  1.0
  O2-  O1007  1  0.81250000  0.93750000  0.11057692  1.0
  O2-  O1008  1  0.06250000  0.06250000  0.11057692  1.0
  O2-  O1009  1  0.06250000  0.31250000  0.11057692  1.0
  O2-  O1010  1  0.06250000  0.56250000  0.11057692  1.0
  O2-  O1011  1  0.06250000  0.81250000  0.11057692  1.0
  O2-  O1012  1  0.31250000  0.06250000  0.11057692  1.0
  O2-  O1013  1  0.31250000  0.31250000  0.11057692  1.0
  O2-  O1014  1  0.31250000  0.56250000  0.11057692  1.0
  O2-  O1015  1  0.31250000  0.81250000  0.11057692  1.0
  O2-  O1016  1  0.56250000  0.06250000  0.11057692  1.0
  O2-  O1017  1  0.56250000  0.31250000  0.11057692  1.0
  O2-  O1018  1  0.56250000  0.56250000  0.11057692  1.0
  O2-  O1019  1  0.56250000  0.81250000  0.11057692  1.0
  O2-  O1020  1  0.81250000  0.06250000  0.11057692  1.0
  O2-  O1021  1  0.81250000  0.31250000  0.11057692  1.0
  O2-  O1022  1  0.81250000  0.56250000  0.11057692  1.0
  O2-  O1023  1  0.81250000  0.81250000  0.11057692  1.0
  O2-  O1024  1  0.18750000  0.18750000  0.12019231  1.0
  O2-  O1025  1  0.18750000  0.43750000  0.12019231  1.0
  O2-  O1026  1  0.18750000  0.68750000  0.12019231  1.0
  O2-  O1027  1  0.18750000  0.93750000  0.12019231  1.0
  O2-  O1028  1  0.43750000  0.18750000  0.12019231  1.0
  O2-  O1029  1  0.43750000  0.43750000  0.12019231  1.0
  O2-  O1030  1  0.43750000  0.68750000  0.12019231  1.0
  O2-  O1031  1  0.43750000  0.93750000  0.12019231  1.0
  O2-  O1032  1  0.68750000  0.18750000  0.12019231  1.0
  O2-  O1033  1  0.68750000  0.43750000  0.12019231  1.0
  O2-  O1034  1  0.68750000  0.68750000  0.12019231  1.0
  O2-  O1035  1  0.68750000  0.93750000  0.12019231  1.0
  O2-  O1036  1  0.93750000  0.18750000  0.12019231  1.0
  O2-  O1037  1  0.93750000  0.43750000  0.12019231  1.0
  O2-  O1038  1  0.93750000  0.68750000  0.12019231  1.0
  O2-  O1039  1  0.93750000  0.93750000  0.12019231  1.0
  O2-  O1040  1  0.18750000  0.06250000  0.12019231  1.0
  O2-  O1041  1  0.18750000  0.31250000  0.12019231  1.0
  O2-  O1042  1  0.18750000  0.56250000  0.12019231  1.0
  O2-  O1043  1  0.18750000  0.81250000  0.12019231  1.0
  O2-  O1044  1  0.43750000  0.06250000  0.12019231  1.0
  O2-  O1045  1  0.43750000  0.31250000  0.12019231  1.0
  O2-  O1046  1  0.43750000  0.56250000  0.12019231  1.0
  O2-  O1047  1  0.43750000  0.81250000  0.12019231  1.0
  O2-  O1048  1  0.68750000  0.06250000  0.12019231  1.0
  O2-  O1049  1  0.68750000  0.31250000  0.12019231  1.0
  O2-  O1050  1  0.68750000  0.56250000  0.12019231  1.0
  O2-  O1051  1  0.68750000  0.81250000  0.12019231  1.0
  O2-  O1052  1  0.93750000  0.06250000  0.12019231  1.0
  O2-  O1053  1  0.93750000  0.31250000  0.12019231  1.0
  O2-  O1054  1  0.93750000  0.56250000  0.12019231  1.0
  O2-  O1055  1  0.93750000  0.81250000  0.12019231  1.0
  O2-  O1056  1  0.06250000  0.18750000  0.12980769  1.0
  O2-  O1057  1  0.06250000  0.43750000  0.12980769  1.0
  O2-  O1058  1  0.06250000  0.68750000  0.12980769  1.0
  O2-  O1059  1  0.06250000  0.93750000  0.12980769  1.0
  O2-  O1060  1  0.31250000  0.18750000  0.12980769  1.0
  O2-  O1061  1  0.31250000  0.43750000  0.12980769  1.0
  O2-  O1062  1  0.31250000  0.68750000  0.12980769  1.0
  O2-  O1063  1  0.31250000  0.93750000  0.12980769  1.0
  O2-  O1064  1  0.56250000  0.18750000  0.12980769  1.0
  O2-  O1065  1  0.56250000  0.43750000  0.12980769  1.0
  O2-  O1066  1  0.56250000  0.68750000  0.12980769  1.0
  O2-  O1067  1  0.56250000  0.93750000  0.12980769  1.0
  O2-  O1068  1  0.81250000  0.18750000  0.12980769  1.0
  O2-  O1069  1  0.81250000  0.43750000  0.12980769  1.0
  O2-  O1070  1  0.81250000  0.68750000  0.12980769  1.0
  O2-  O1071  1  0.81250000  0.93750000  0.12980769  1.0
  O2-  O1072  1  0.06250000  0.06250000  0.12980769  1.0
  O2-  O1073  1  0.06250000  0.31250000  0.12980769  1.0
  O2-  O1074  1  0.06250000  0.56250000  0.12980769  1.0
  O2-  O1075  1  0.06250000  0.81250000  0.12980769  1.0
  O2-  O1076  1  0.31250000  0.06250000  0.12980769  1.0
  O2-  O1077  1  0.31250000  0.31250000  0.12980769  1.0
  O2-  O1078  1  0.31250000  0.56250000  0.12980769  1.0
  O2-  O1079  1  0.31250000  0.81250000  0.12980769  1.0
  O2-  O1080  1  0.56250000  0.06250000  0.12980769  1.0
  O2-  O1081  1  0.56250000  0.31250000  0.12980769  1.0
  O2-  O1082  1  0.56250000  0.56250000  0.12980769  1.0
  O2-  O1083  1  0.56250000  0.81250000  0.12980769  1.0
  O2-  O1084  1  0.81250000  0.06250000  0.12980769  1.0
  O2-  O1085  1  0.81250000  0.31250000  0.12980769  1.0
  O2-  O1086  1  0.81250000  0.56250000  0.12980769  1.0
  O2-  O1087  1  0.81250000  0.81250000  0.12980769  1.0
  O2-  O1088  1  0.18750000  0.18750000  0.13942308  1.0
  O2-  O1089  1  0.18750000  0.43750000  0.13942308  1.0
  O2-  O1090  1  0.18750000  0.68750000  0.13942308  1.0
  O2-  O1091  1  0.18750000  0.93750000  0.13942308  1.0
  O2-  O1092  1  0.43750000  0.18750000  0.13942308  1.0
  O2-  O1093  1  0.43750000  0.43750000  0.13942308  1.0
  O2-  O1094  1  0.43750000  0.68750000  0.13942308  1.0
  O2-  O1095  1  0.43750000  0.93750000  0.13942308  1.0
  O2-  O1096  1  0.68750000  0.18750000  0.13942308  1.0
  O2-  O1097  1  0.68750000  0.43750000  0.13942308  1.0
  O2-  O1098  1  0.68750000  0.68750000  0.13942308  1.0
  O2-  O1099  1  0.68750000  0.93750000  0.13942308  1.0
  O2-  O1100  1  0.93750000  0.18750000  0.13942308  1.0
  O2-  O1101  1  0.93750000  0.43750000  0.13942308  1.0
  O2-  O1102  1  0.93750000  0.68750000  0.13942308  1.0
  O2-  O1103  1  0.93750000  0.93750000  0.13942308  1.0
  O2-  O1104  1  0.18750000  0.06250000  0.13942308  1.0
  O2-  O1105  1  0.18750000  0.31250000  0.13942308  1.0
  O2-  O1106  1  0.18750000  0.56250000  0.13942308  1.0
  O2-  O1107  1  0.18750000  0.81250000  0.13942308  1.0
  O2-  O1108  1  0.43750000  0.06250000  0.13942308  1.0
  O2-  O1109  1  0.43750000  0.31250000  0.13942308  1.0
  O2-  O1110  1  0.43750000  0.56250000  0.13942308  1.0
  O2-  O1111  1  0.43750000  0.81250000  0.13942308  1.0
  O2-  O1112  1  0.68750000  0.06250000  0.13942308  1.0
  O2-  O1113  1  0.68750000  0.31250000  0.13942308  1.0
  O2-  O1114  1  0.68750000  0.56250000  0.13942308  1.0
  O2-  O1115  1  0.68750000  0.81250000  0.13942308  1.0
  O2-  O1116  1  0.93750000  0.06250000  0.13942308  1.0
  O2-  O1117  1  0.93750000  0.31250000  0.13942308  1.0
  O2-  O1118  1  0.93750000  0.56250000  0.13942308  1.0
  O2-  O1119  1  0.93750000  0.81250000  0.13942308  1.0
  O2-  O1120  1  0.06250000  0.18750000  0.14903846  1.0
  O2-  O1121  1  0.06250000  0.43750000  0.14903846  1.0
  O2-  O1122  1  0.06250000  0.68750000  0.14903846  1.0
  O2-  O1123  1  0.06250000  0.93750000  0.14903846  1.0
  O2-  O1124  1  0.31250000  0.18750000  0.14903846  1.0
  O2-  O1125  1  0.31250000  0.43750000  0.14903846  1.0
  O2-  O1126  1  0.31250000  0.68750000  0.14903846  1.0
  O2-  O1127  1  0.31250000  0.93750000  0.14903846  1.0
  O2-  O1128  1  0.56250000  0.18750000  0.14903846  1.0
  O2-  O1129  1  0.56250000  0.43750000  0.14903846  1.0
  O2-  O1130  1  0.56250000  0.68750000  0.14903846  1.0
  O2-  O1131  1  0.56250000  0.93750000  0.14903846  1.0
  O2-  O1132  1  0.81250000  0.18750000  0.14903846  1.0
  O2-  O1133  1  0.81250000  0.43750000  0.14903846  1.0
  O2-  O1134  1  0.81250000  0.68750000  0.14903846  1.0
  O2-  O1135  1  0.81250000  0.93750000  0.14903846  1.0
  O2-  O1136  1  0.06250000  0.06250000  0.14903846  1.0
  O2-  O1137  1  0.06250000  0.31250000  0.14903846  1.0
  O2-  O1138  1  0.06250000  0.56250000  0.14903846  1.0
  O2-  O1139  1  0.06250000  0.81250000  0.14903846  1.0
  O2-  O1140  1  0.31250000  0.06250000  0.14903846  1.0
  O2-  O1141  1  0.31250000  0.31250000  0.14903846  1.0
  O2-  O1142  1  0.31250000  0.56250000  0.14903846  1.0
  O2-  O1143  1  0.31250000  0.81250000  0.14903846  1.0
  O2-  O1144  1  0.56250000  0.06250000  0.14903846  1.0
  O2-  O1145  1  0.56250000  0.31250000  0.14903846  1.0
  O2-  O1146  1  0.56250000  0.56250000  0.14903846  1.0
  O2-  O1147  1  0.56250000  0.81250000  0.14903846  1.0
  O2-  O1148  1  0.81250000  0.06250000  0.14903846  1.0
  O2-  O1149  1  0.81250000  0.31250000  0.14903846  1.0
  O2-  O1150  1  0.81250000  0.56250000  0.14903846  1.0
  O2-  O1151  1  0.81250000  0.81250000  0.14903846  1.0
  O2-  O1152  1  0.18750000  0.18750000  0.15865385  1.0
  O2-  O1153  1  0.18750000  0.43750000  0.15865385  1.0
  O2-  O1154  1  0.18750000  0.68750000  0.15865385  1.0
  O2-  O1155  1  0.18750000  0.93750000  0.15865385  1.0
  O2-  O1156  1  0.43750000  0.18750000  0.15865385  1.0
  O2-  O1157  1  0.43750000  0.43750000  0.15865385  1.0
  O2-  O1158  1  0.43750000  0.68750000  0.15865385  1.0
  O2-  O1159  1  0.43750000  0.93750000  0.15865385  1.0
  O2-  O1160  1  0.68750000  0.18750000  0.15865385  1.0
  O2-  O1161  1  0.68750000  0.43750000  0.15865385  1.0
  O2-  O1162  1  0.68750000  0.68750000  0.15865385  1.0
  O2-  O1163  1  0.68750000  0.93750000  0.15865385  1.0
  O2-  O1164  1  0.93750000  0.18750000  0.15865385  1.0
  O2-  O1165  1  0.93750000  0.43750000  0.15865385  1.0
  O2-  O1166  1  0.93750000  0.68750000  0.15865385  1.0
  O2-  O1167  1  0.93750000  0.93750000  0.15865385  1.0
  O2-  O1168  1  0.18750000  0.06250000  0.15865385  1.0
  O2-  O1169  1  0.18750000  0.31250000  0.15865385  1.0
  O2-  O1170  1  0.18750000  0.56250000  0.15865385  1.0
  O2-  O1171  1  0.18750000  0.81250000  0.15865385  1.0
  O2-  O1172  1  0.43750000  0.06250000  0.15865385  1.0
  O2-  O1173  1  0.43750000  0.31250000  0.15865385  1.0
  O2-  O1174  1  0.43750000  0.56250000  0.15865385  1.0
  O2-  O1175  1  0.43750000  0.81250000  0.15865385  1.0
  O2-  O1176  1  0.68750000  0.06250000  0.15865385  1.0
  O2-  O1177  1  0.68750000  0.31250000  0.15865385  1.0
  O2-  O1178  1  0.68750000  0.56250000  0.15865385  1.0
  O2-  O1179  1  0.68750000  0.81250000  0.15865385  1.0
  O2-  O1180  1  0.93750000  0.06250000  0.15865385  1.0
  O2-  O1181  1  0.93750000  0.31250000  0.15865385  1.0
  O2-  O1182  1  0.93750000  0.56250000  0.15865385  1.0
  O2-  O1183  1  0.93750000  0.81250000  0.15865385  1.0
  O2-  O1184  1  0.06250000  0.18750000  0.16826923  1.0
  O2-  O1185  1  0.06250000  0.43750000  0.16826923  1.0
  O2-  O1186  1  0.06250000  0.68750000  0.16826923  1.0
  O2-  O1187  1  0.06250000  0.93750000  0.16826923  1.0
  O2-  O1188  1  0.31250000  0.18750000  0.16826923  1.0
  O2-  O1189  1  0.31250000  0.43750000  0.16826923  1.0
  O2-  O1190  1  0.31250000  0.68750000  0.16826923  1.0
  O2-  O1191  1  0.31250000  0.93750000  0.16826923  1.0
  O2-  O1192  1  0.56250000  0.18750000  0.16826923  1.0
  O2-  O1193  1  0.56250000  0.43750000  0.16826923  1.0
  O2-  O1194  1  0.56250000  0.68750000  0.16826923  1.0
  O2-  O1195  1  0.56250000  0.93750000  0.16826923  1.0
  O2-  O1196  1  0.81250000  0.18750000  0.16826923  1.0
  O2-  O1197  1  0.81250000  0.43750000  0.16826923  1.0
  O2-  O1198  1  0.81250000  0.68750000  0.16826923  1.0
  O2-  O1199  1  0.81250000  0.93750000  0.16826923  1.0
  O2-  O1200  1  0.06250000  0.06250000  0.16826923  1.0
  O2-  O1201  1  0.06250000  0.31250000  0.16826923  1.0
  O2-  O1202  1  0.06250000  0.56250000  0.16826923  1.0
  O2-  O1203  1  0.06250000  0.81250000  0.16826923  1.0
  O2-  O1204  1  0.31250000  0.06250000  0.16826923  1.0
  O2-  O1205  1  0.31250000  0.31250000  0.16826923  1.0
  O2-  O1206  1  0.31250000  0.56250000  0.16826923  1.0
  O2-  O1207  1  0.31250000  0.81250000  0.16826923  1.0
  O2-  O1208  1  0.56250000  0.06250000  0.16826923  1.0
  O2-  O1209  1  0.56250000  0.31250000  0.16826923  1.0
  O2-  O1210  1  0.56250000  0.56250000  0.16826923  1.0
  O2-  O1211  1  0.56250000  0.81250000  0.16826923  1.0
  O2-  O1212  1  0.81250000  0.06250000  0.16826923  1.0
  O2-  O1213  1  0.81250000  0.31250000  0.16826923  1.0
  O2-  O1214  1  0.81250000  0.56250000  0.16826923  1.0
  O2-  O1215  1  0.81250000  0.81250000  0.16826923  1.0
  O2-  O1216  1  0.18750000  0.18750000  0.17788462  1.0
  O2-  O1217  1  0.18750000  0.43750000  0.17788462  1.0
  O2-  O1218  1  0.18750000  0.68750000  0.17788462  1.0
  O2-  O1219  1  0.18750000  0.93750000  0.17788462  1.0
  O2-  O1220  1  0.43750000  0.18750000  0.17788462  1.0
  O2-  O1221  1  0.43750000  0.43750000  0.17788462  1.0
  O2-  O1222  1  0.43750000  0.68750000  0.17788462  1.0
  O2-  O1223  1  0.43750000  0.93750000  0.17788462  1.0
  O2-  O1224  1  0.68750000  0.18750000  0.17788462  1.0
  O2-  O1225  1  0.68750000  0.43750000  0.17788462  1.0
  O2-  O1226  1  0.68750000  0.68750000  0.17788462  1.0
  O2-  O1227  1  0.68750000  0.93750000  0.17788462  1.0
  O2-  O1228  1  0.93750000  0.18750000  0.17788462  1.0
  O2-  O1229  1  0.93750000  0.43750000  0.17788462  1.0
  O2-  O1230  1  0.93750000  0.68750000  0.17788462  1.0
  O2-  O1231  1  0.93750000  0.93750000  0.17788462  1.0
  O2-  O1232  1  0.18750000  0.06250000  0.17788462  1.0
  O2-  O1233  1  0.18750000  0.31250000  0.17788462  1.0
  O2-  O1234  1  0.18750000  0.56250000  0.17788462  1.0
  O2-  O1235  1  0.18750000  0.81250000  0.17788462  1.0
  O2-  O1236  1  0.43750000  0.06250000  0.17788462  1.0
  O2-  O1237  1  0.43750000  0.31250000  0.17788462  1.0
  O2-  O1238  1  0.43750000  0.56250000  0.17788462  1.0
  O2-  O1239  1  0.43750000  0.81250000  0.17788462  1.0
  O2-  O1240  1  0.68750000  0.06250000  0.17788462  1.0
  O2-  O1241  1  0.68750000  0.31250000  0.17788462  1.0
  O2-  O1242  1  0.68750000  0.56250000  0.17788462  1.0
  O2-  O1243  1  0.68750000  0.81250000  0.17788462  1.0
  O2-  O1244  1  0.93750000  0.06250000  0.17788462  1.0
  O2-  O1245  1  0.93750000  0.31250000  0.17788462  1.0
  O2-  O1246  1  0.93750000  0.56250000  0.17788462  1.0
  O2-  O1247  1  0.93750000  0.81250000  0.17788462  1.0
  O2-  O1248  1  0.06250000  0.18750000  0.18750000  1.0
  O2-  O1249  1  0.06250000  0.43750000  0.18750000  1.0
  O2-  O1250  1  0.06250000  0.68750000  0.18750000  1.0
  O2-  O1251  1  0.06250000  0.93750000  0.18750000  1.0
  O2-  O1252  1  0.31250000  0.18750000  0.18750000  1.0
  O2-  O1253  1  0.31250000  0.43750000  0.18750000  1.0
  O2-  O1254  1  0.31250000  0.68750000  0.18750000  1.0
  O2-  O1255  1  0.31250000  0.93750000  0.18750000  1.0
  O2-  O1256  1  0.56250000  0.18750000  0.18750000  1.0
  O2-  O1257  1  0.56250000  0.43750000  0.18750000  1.0
  O2-  O1258  1  0.56250000  0.68750000  0.18750000  1.0
  O2-  O1259  1  0.56250000  0.93750000  0.18750000  1.0
  O2-  O1260  1  0.81250000  0.18750000  0.18750000  1.0
  O2-  O1261  1  0.81250000  0.43750000  0.18750000  1.0
  O2-  O1262  1  0.81250000  0.68750000  0.18750000  1.0
  O2-  O1263  1  0.81250000  0.93750000  0.18750000  1.0
  O2-  O1264  1  0.06250000  0.06250000  0.18750000  1.0
  O2-  O1265  1  0.06250000  0.31250000  0.18750000  1.0
  O2-  O1266  1  0.06250000  0.56250000  0.18750000  1.0
  O2-  O1267  1  0.06250000  0.81250000  0.18750000  1.0
  O2-  O1268  1  0.31250000  0.06250000  0.18750000  1.0
  O2-  O1269  1  0.31250000  0.31250000  0.18750000  1.0
  O2-  O1270  1  0.31250000  0.56250000  0.18750000  1.0
  O2-  O1271  1  0.31250000  0.81250000  0.18750000  1.0
  O2-  O1272  1  0.56250000  0.06250000  0.18750000  1.0
  O2-  O1273  1  0.56250000  0.31250000  0.18750000  1.0
  O2-  O1274  1  0.56250000  0.56250000  0.18750000  1.0
  O2-  O1275  1  0.56250000  0.81250000  0.18750000  1.0
  O2-  O1276  1  0.81250000  0.06250000  0.18750000  1.0
  O2-  O1277  1  0.81250000  0.31250000  0.18750000  1.0
  O2-  O1278  1  0.81250000  0.56250000  0.18750000  1.0
  O2-  O1279  1  0.81250000  0.81250000  0.18750000  1.0
  O2-  O1280  1  0.18750000  0.18750000  0.19711538  1.0
  O2-  O1281  1  0.18750000  0.43750000  0.19711538  1.0
  O2-  O1282  1  0.18750000  0.68750000  0.19711538  1.0
  O2-  O1283  1  0.18750000  0.93750000  0.19711538  1.0
  O2-  O1284  1  0.43750000  0.18750000  0.19711538  1.0
  O2-  O1285  1  0.43750000  0.43750000  0.19711538  1.0
  O2-  O1286  1  0.43750000  0.68750000  0.19711538  1.0
  O2-  O1287  1  0.43750000  0.93750000  0.19711538  1.0
  O2-  O1288  1  0.68750000  0.18750000  0.19711538  1.0
  O2-  O1289  1  0.68750000  0.43750000  0.19711538  1.0
  O2-  O1290  1  0.68750000  0.68750000  0.19711538  1.0
  O2-  O1291  1  0.68750000  0.93750000  0.19711538  1.0
  O2-  O1292  1  0.93750000  0.18750000  0.19711538  1.0
  O2-  O1293  1  0.93750000  0.43750000  0.19711538  1.0
  O2-  O1294  1  0.93750000  0.68750000  0.19711538  1.0
  O2-  O1295  1  0.93750000  0.93750000  0.19711538  1.0
  O2-  O1296  1  0.18750000  0.06250000  0.19711538  1.0
  O2-  O1297  1  0.18750000  0.31250000  0.19711538  1.0
  O2-  O1298  1  0.18750000  0.56250000  0.19711538  1.0
  O2-  O1299  1  0.18750000  0.81250000  0.19711538  1.0
  O2-  O1300  1  0.43750000  0.06250000  0.19711538  1.0
  O2-  O1301  1  0.43750000  0.31250000  0.19711538  1.0
  O2-  O1302  1  0.43750000  0.56250000  0.19711538  1.0
  O2-  O1303  1  0.43750000  0.81250000  0.19711538  1.0
  O2-  O1304  1  0.68750000  0.06250000  0.19711538  1.0
  O2-  O1305  1  0.68750000  0.31250000  0.19711538  1.0
  O2-  O1306  1  0.68750000  0.56250000  0.19711538  1.0
  O2-  O1307  1  0.68750000  0.81250000  0.19711538  1.0
  O2-  O1308  1  0.93750000  0.06250000  0.19711538  1.0
  O2-  O1309  1  0.93750000  0.31250000  0.19711538  1.0
  O2-  O1310  1  0.93750000  0.56250000  0.19711538  1.0
  O2-  O1311  1  0.93750000  0.81250000  0.19711538  1.0
  O2-  O1312  1  0.06250000  0.18750000  0.20673077  1.0
  O2-  O1313  1  0.06250000  0.43750000  0.20673077  1.0
  O2-  O1314  1  0.06250000  0.68750000  0.20673077  1.0
  O2-  O1315  1  0.06250000  0.93750000  0.20673077  1.0
  O2-  O1316  1  0.31250000  0.18750000  0.20673077  1.0
  O2-  O1317  1  0.31250000  0.43750000  0.20673077  1.0
  O2-  O1318  1  0.31250000  0.68750000  0.20673077  1.0
  O2-  O1319  1  0.31250000  0.93750000  0.20673077  1.0
  O2-  O1320  1  0.56250000  0.18750000  0.20673077  1.0
  O2-  O1321  1  0.56250000  0.43750000  0.20673077  1.0
  O2-  O1322  1  0.56250000  0.68750000  0.20673077  1.0
  O2-  O1323  1  0.56250000  0.93750000  0.20673077  1.0
  O2-  O1324  1  0.81250000  0.18750000  0.20673077  1.0
  O2-  O1325  1  0.81250000  0.43750000  0.20673077  1.0
  O2-  O1326  1  0.81250000  0.68750000  0.20673077  1.0
  O2-  O1327  1  0.81250000  0.93750000  0.20673077  1.0
  O2-  O1328  1  0.06250000  0.06250000  0.20673077  1.0
  O2-  O1329  1  0.06250000  0.31250000  0.20673077  1.0
  O2-  O1330  1  0.06250000  0.56250000  0.20673077  1.0
  O2-  O1331  1  0.06250000  0.81250000  0.20673077  1.0
  O2-  O1332  1  0.31250000  0.06250000  0.20673077  1.0
  O2-  O1333  1  0.31250000  0.31250000  0.20673077  1.0
  O2-  O1334  1  0.31250000  0.56250000  0.20673077  1.0
  O2-  O1335  1  0.31250000  0.81250000  0.20673077  1.0
  O2-  O1336  1  0.56250000  0.06250000  0.20673077  1.0
  O2-  O1337  1  0.56250000  0.31250000  0.20673077  1.0
  O2-  O1338  1  0.56250000  0.56250000  0.20673077  1.0
  O2-  O1339  1  0.56250000  0.81250000  0.20673077  1.0
  O2-  O1340  1  0.81250000  0.06250000  0.20673077  1.0
  O2-  O1341  1  0.81250000  0.31250000  0.20673077  1.0
  O2-  O1342  1  0.81250000  0.56250000  0.20673077  1.0
  O2-  O1343  1  0.81250000  0.81250000  0.20673077  1.0
  O2-  O1344  1  0.18750000  0.18750000  0.21634615  1.0
  O2-  O1345  1  0.18750000  0.43750000  0.21634615  1.0
  O2-  O1346  1  0.18750000  0.68750000  0.21634615  1.0
  O2-  O1347  1  0.18750000  0.93750000  0.21634615  1.0
  O2-  O1348  1  0.43750000  0.18750000  0.21634615  1.0
  O2-  O1349  1  0.43750000  0.43750000  0.21634615  1.0
  O2-  O1350  1  0.43750000  0.68750000  0.21634615  1.0
  O2-  O1351  1  0.43750000  0.93750000  0.21634615  1.0
  O2-  O1352  1  0.68750000  0.18750000  0.21634615  1.0
  O2-  O1353  1  0.68750000  0.43750000  0.21634615  1.0
  O2-  O1354  1  0.68750000  0.68750000  0.21634615  1.0
  O2-  O1355  1  0.68750000  0.93750000  0.21634615  1.0
  O2-  O1356  1  0.93750000  0.18750000  0.21634615  1.0
  O2-  O1357  1  0.93750000  0.43750000  0.21634615  1.0
  O2-  O1358  1  0.93750000  0.68750000  0.21634615  1.0
  O2-  O1359  1  0.93750000  0.93750000  0.21634615  1.0
  O2-  O1360  1  0.18750000  0.06250000  0.21634615  1.0
  O2-  O1361  1  0.18750000  0.31250000  0.21634615  1.0
  O2-  O1362  1  0.18750000  0.56250000  0.21634615  1.0
  O2-  O1363  1  0.18750000  0.81250000  0.21634615  1.0
  O2-  O1364  1  0.43750000  0.06250000  0.21634615  1.0
  O2-  O1365  1  0.43750000  0.31250000  0.21634615  1.0
  O2-  O1366  1  0.43750000  0.56250000  0.21634615  1.0
  O2-  O1367  1  0.43750000  0.81250000  0.21634615  1.0
  O2-  O1368  1  0.68750000  0.06250000  0.21634615  1.0
  O2-  O1369  1  0.68750000  0.31250000  0.21634615  1.0
  O2-  O1370  1  0.68750000  0.56250000  0.21634615  1.0
  O2-  O1371  1  0.68750000  0.81250000  0.21634615  1.0
  O2-  O1372  1  0.93750000  0.06250000  0.21634615  1.0
  O2-  O1373  1  0.93750000  0.31250000  0.21634615  1.0
  O2-  O1374  1  0.93750000  0.56250000  0.21634615  1.0
  O2-  O1375  1  0.93750000  0.81250000  0.21634615  1.0
  O2-  O1376  1  0.06250000  0.18750000  0.22596154  1.0
  O2-  O1377  1  0.06250000  0.43750000  0.22596154  1.0
  O2-  O1378  1  0.06250000  0.68750000  0.22596154  1.0
  O2-  O1379  1  0.06250000  0.93750000  0.22596154  1.0
  O2-  O1380  1  0.31250000  0.18750000  0.22596154  1.0
  O2-  O1381  1  0.31250000  0.43750000  0.22596154  1.0
  O2-  O1382  1  0.31250000  0.68750000  0.22596154  1.0
  O2-  O1383  1  0.31250000  0.93750000  0.22596154  1.0
  O2-  O1384  1  0.56250000  0.18750000  0.22596154  1.0
  O2-  O1385  1  0.56250000  0.43750000  0.22596154  1.0
  O2-  O1386  1  0.56250000  0.68750000  0.22596154  1.0
  O2-  O1387  1  0.56250000  0.93750000  0.22596154  1.0
  O2-  O1388  1  0.81250000  0.18750000  0.22596154  1.0
  O2-  O1389  1  0.81250000  0.43750000  0.22596154  1.0
  O2-  O1390  1  0.81250000  0.68750000  0.22596154  1.0
  O2-  O1391  1  0.81250000  0.93750000  0.22596154  1.0
  O2-  O1392  1  0.06250000  0.06250000  0.22596154  1.0
  O2-  O1393  1  0.06250000  0.31250000  0.22596154  1.0
  O2-  O1394  1  0.06250000  0.56250000  0.22596154  1.0
  O2-  O1395  1  0.06250000  0.81250000  0.22596154  1.0
  O2-  O1396  1  0.31250000  0.06250000  0.22596154  1.0
  O2-  O1397  1  0.31250000  0.31250000  0.22596154  1.0
  O2-  O1398  1  0.31250000  0.56250000  0.22596154  1.0
  O2-  O1399  1  0.31250000  0.81250000  0.22596154  1.0
  O2-  O1400  1  0.56250000  0.06250000  0.22596154  1.0
  O2-  O1401  1  0.56250000  0.31250000  0.22596154  1.0
  O2-  O1402  1  0.56250000  0.56250000  0.22596154  1.0
  O2-  O1403  1  0.56250000  0.81250000  0.22596154  1.0
  O2-  O1404  1  0.81250000  0.06250000  0.22596154  1.0
  O2-  O1405  1  0.81250000  0.31250000  0.22596154  1.0
  O2-  O1406  1  0.81250000  0.56250000  0.22596154  1.0
  O2-  O1407  1  0.81250000  0.81250000  0.22596154  1.0
  O2-  O1408  1  0.18750000  0.18750000  0.23557692  1.0
  O2-  O1409  1  0.18750000  0.43750000  0.23557692  1.0
  O2-  O1410  1  0.18750000  0.68750000  0.23557692  1.0
  O2-  O1411  1  0.18750000  0.93750000  0.23557692  1.0
  O2-  O1412  1  0.43750000  0.18750000  0.23557692  1.0
  O2-  O1413  1  0.43750000  0.43750000  0.23557692  1.0
  O2-  O1414  1  0.43750000  0.68750000  0.23557692  1.0
  O2-  O1415  1  0.43750000  0.93750000  0.23557692  1.0
  O2-  O1416  1  0.68750000  0.18750000  0.23557692  1.0
  O2-  O1417  1  0.68750000  0.43750000  0.23557692  1.0
  O2-  O1418  1  0.68750000  0.68750000  0.23557692  1.0
  O2-  O1419  1  0.68750000  0.93750000  0.23557692  1.0
  O2-  O1420  1  0.93750000  0.18750000  0.23557692  1.0
  O2-  O1421  1  0.93750000  0.43750000  0.23557692  1.0
  O2-  O1422  1  0.93750000  0.68750000  0.23557692  1.0
  O2-  O1423  1  0.93750000  0.93750000  0.23557692  1.0
  O2-  O1424  1  0.18750000  0.06250000  0.23557692  1.0
  O2-  O1425  1  0.18750000  0.31250000  0.23557692  1.0
  O2-  O1426  1  0.18750000  0.56250000  0.23557692  1.0
  O2-  O1427  1  0.18750000  0.81250000  0.23557692  1.0
  O2-  O1428  1  0.43750000  0.06250000  0.23557692  1.0
  O2-  O1429  1  0.43750000  0.31250000  0.23557692  1.0
  O2-  O1430  1  0.43750000  0.56250000  0.23557692  1.0
  O2-  O1431  1  0.43750000  0.81250000  0.23557692  1.0
  O2-  O1432  1  0.68750000  0.06250000  0.23557692  1.0
  O2-  O1433  1  0.68750000  0.31250000  0.23557692  1.0
  O2-  O1434  1  0.68750000  0.56250000  0.23557692  1.0
  O2-  O1435  1  0.68750000  0.81250000  0.23557692  1.0
  O2-  O1436  1  0.93750000  0.06250000  0.23557692  1.0
  O2-  O1437  1  0.93750000  0.31250000  0.23557692  1.0
  O2-  O1438  1  0.93750000  0.56250000  0.23557692  1.0
  O2-  O1439  1  0.93750000  0.81250000  0.23557692  1.0
  O2-  O1440  1  0.06250000  0.18750000  0.24519231  1.0
  O2-  O1441  1  0.06250000  0.43750000  0.24519231  1.0
  O2-  O1442  1  0.06250000  0.68750000  0.24519231  1.0
  O2-  O1443  1  0.06250000  0.93750000  0.24519231  1.0
  O2-  O1444  1  0.31250000  0.18750000  0.24519231  1.0
  O2-  O1445  1  0.31250000  0.43750000  0.24519231  1.0
  O2-  O1446  1  0.31250000  0.68750000  0.24519231  1.0
  O2-  O1447  1  0.31250000  0.93750000  0.24519231  1.0
  O2-  O1448  1  0.56250000  0.18750000  0.24519231  1.0
  O2-  O1449  1  0.56250000  0.43750000  0.24519231  1.0
  O2-  O1450  1  0.56250000  0.68750000  0.24519231  1.0
  O2-  O1451  1  0.56250000  0.93750000  0.24519231  1.0
  O2-  O1452  1  0.81250000  0.18750000  0.24519231  1.0
  O2-  O1453  1  0.81250000  0.43750000  0.24519231  1.0
  O2-  O1454  1  0.81250000  0.68750000  0.24519231  1.0
  O2-  O1455  1  0.81250000  0.93750000  0.24519231  1.0
  O2-  O1456  1  0.06250000  0.06250000  0.24519231  1.0
  O2-  O1457  1  0.06250000  0.31250000  0.24519231  1.0
  O2-  O1458  1  0.06250000  0.56250000  0.24519231  1.0
  O2-  O1459  1  0.06250000  0.81250000  0.24519231  1.0
  O2-  O1460  1  0.31250000  0.06250000  0.24519231  1.0
  O2-  O1461  1  0.31250000  0.31250000  0.24519231  1.0
  O2-  O1462  1  0.31250000  0.56250000  0.24519231  1.0
  O2-  O1463  1  0.31250000  0.81250000  0.24519231  1.0
  O2-  O1464  1  0.56250000  0.06250000  0.24519231  1.0
  O2-  O1465  1  0.56250000  0.31250000  0.24519231  1.0
  O2-  O1466  1  0.56250000  0.56250000  0.24519231  1.0
  O2-  O1467  1  0.56250000  0.81250000  0.24519231  1.0
  O2-  O1468  1  0.81250000  0.06250000  0.24519231  1.0
  O2-  O1469  1  0.81250000  0.31250000  0.24519231  1.0
  O2-  O1470  1  0.81250000  0.56250000  0.24519231  1.0
  O2-  O1471  1  0.81250000  0.81250000  0.24519231  1.0
  O2-  O1472  1  0.18750000  0.18750000  0.25480769  1.0
  O2-  O1473  1  0.18750000  0.43750000  0.25480769  1.0
  O2-  O1474  1  0.18750000  0.68750000  0.25480769  1.0
  O2-  O1475  1  0.18750000  0.93750000  0.25480769  1.0
  O2-  O1476  1  0.43750000  0.18750000  0.25480769  1.0
  O2-  O1477  1  0.43750000  0.43750000  0.25480769  1.0
  O2-  O1478  1  0.43750000  0.68750000  0.25480769  1.0
  O2-  O1479  1  0.43750000  0.93750000  0.25480769  1.0
  O2-  O1480  1  0.68750000  0.18750000  0.25480769  1.0
  O2-  O1481  1  0.68750000  0.43750000  0.25480769  1.0
  O2-  O1482  1  0.68750000  0.68750000  0.25480769  1.0
  O2-  O1483  1  0.68750000  0.93750000  0.25480769  1.0
  O2-  O1484  1  0.93750000  0.18750000  0.25480769  1.0
  O2-  O1485  1  0.93750000  0.43750000  0.25480769  1.0
  O2-  O1486  1  0.93750000  0.68750000  0.25480769  1.0
  O2-  O1487  1  0.93750000  0.93750000  0.25480769  1.0
  O2-  O1488  1  0.18750000  0.06250000  0.25480769  1.0
  O2-  O1489  1  0.18750000  0.31250000  0.25480769  1.0
  O2-  O1490  1  0.18750000  0.56250000  0.25480769  1.0
  O2-  O1491  1  0.18750000  0.81250000  0.25480769  1.0
  O2-  O1492  1  0.43750000  0.06250000  0.25480769  1.0
  O2-  O1493  1  0.43750000  0.31250000  0.25480769  1.0
  O2-  O1494  1  0.43750000  0.56250000  0.25480769  1.0
  O2-  O1495  1  0.43750000  0.81250000  0.25480769  1.0
  O2-  O1496  1  0.68750000  0.06250000  0.25480769  1.0
  O2-  O1497  1  0.68750000  0.31250000  0.25480769  1.0
  O2-  O1498  1  0.68750000  0.56250000  0.25480769  1.0
  O2-  O1499  1  0.68750000  0.81250000  0.25480769  1.0
  O2-  O1500  1  0.93750000  0.06250000  0.25480769  1.0
  O2-  O1501  1  0.93750000  0.31250000  0.25480769  1.0
  O2-  O1502  1  0.93750000  0.56250000  0.25480769  1.0
  O2-  O1503  1  0.93750000  0.81250000  0.25480769  1.0
  O2-  O1504  1  0.06250000  0.18750000  0.26442308  1.0
  O2-  O1505  1  0.06250000  0.43750000  0.26442308  1.0
  O2-  O1506  1  0.06250000  0.68750000  0.26442308  1.0
  O2-  O1507  1  0.06250000  0.93750000  0.26442308  1.0
  O2-  O1508  1  0.31250000  0.18750000  0.26442308  1.0
  O2-  O1509  1  0.31250000  0.43750000  0.26442308  1.0
  O2-  O1510  1  0.31250000  0.68750000  0.26442308  1.0
  O2-  O1511  1  0.31250000  0.93750000  0.26442308  1.0
  O2-  O1512  1  0.56250000  0.18750000  0.26442308  1.0
  O2-  O1513  1  0.56250000  0.43750000  0.26442308  1.0
  O2-  O1514  1  0.56250000  0.68750000  0.26442308  1.0
  O2-  O1515  1  0.56250000  0.93750000  0.26442308  1.0
  O2-  O1516  1  0.81250000  0.18750000  0.26442308  1.0
  O2-  O1517  1  0.81250000  0.43750000  0.26442308  1.0
  O2-  O1518  1  0.81250000  0.68750000  0.26442308  1.0
  O2-  O1519  1  0.81250000  0.93750000  0.26442308  1.0
  O2-  O1520  1  0.06250000  0.06250000  0.26442308  1.0
  O2-  O1521  1  0.06250000  0.31250000  0.26442308  1.0
  O2-  O1522  1  0.06250000  0.56250000  0.26442308  1.0
  O2-  O1523  1  0.06250000  0.81250000  0.26442308  1.0
  O2-  O1524  1  0.31250000  0.06250000  0.26442308  1.0
  O2-  O1525  1  0.31250000  0.31250000  0.26442308  1.0
  O2-  O1526  1  0.31250000  0.56250000  0.26442308  1.0
  O2-  O1527  1  0.31250000  0.81250000  0.26442308  1.0
  O2-  O1528  1  0.56250000  0.06250000  0.26442308  1.0
  O2-  O1529  1  0.56250000  0.31250000  0.26442308  1.0
  O2-  O1530  1  0.56250000  0.56250000  0.26442308  1.0
  O2-  O1531  1  0.56250000  0.81250000  0.26442308  1.0
  O2-  O1532  1  0.81250000  0.06250000  0.26442308  1.0
  O2-  O1533  1  0.81250000  0.31250000  0.26442308  1.0
  O2-  O1534  1  0.81250000  0.56250000  0.26442308  1.0
  O2-  O1535  1  0.81250000  0.81250000  0.26442308  1.0
  O2-  O1536  1  0.18750000  0.18750000  0.27403846  1.0
  O2-  O1537  1  0.18750000  0.43750000  0.27403846  1.0
  O2-  O1538  1  0.18750000  0.68750000  0.27403846  1.0
  O2-  O1539  1  0.18750000  0.93750000  0.27403846  1.0
  O2-  O1540  1  0.43750000  0.18750000  0.27403846  1.0
  O2-  O1541  1  0.43750000  0.43750000  0.27403846  1.0
  O2-  O1542  1  0.43750000  0.68750000  0.27403846  1.0
  O2-  O1543  1  0.43750000  0.93750000  0.27403846  1.0
  O2-  O1544  1  0.68750000  0.18750000  0.27403846  1.0
  O2-  O1545  1  0.68750000  0.43750000  0.27403846  1.0
  O2-  O1546  1  0.68750000  0.68750000  0.27403846  1.0
  O2-  O1547  1  0.68750000  0.93750000  0.27403846  1.0
  O2-  O1548  1  0.93750000  0.18750000  0.27403846  1.0
  O2-  O1549  1  0.93750000  0.43750000  0.27403846  1.0
  O2-  O1550  1  0.93750000  0.68750000  0.27403846  1.0
  O2-  O1551  1  0.93750000  0.93750000  0.27403846  1.0
  O2-  O1552  1  0.18750000  0.06250000  0.27403846  1.0
  O2-  O1553  1  0.18750000  0.31250000  0.27403846  1.0
  O2-  O1554  1  0.18750000  0.56250000  0.27403846  1.0
  O2-  O1555  1  0.18750000  0.81250000  0.27403846  1.0
  O2-  O1556  1  0.43750000  0.06250000  0.27403846  1.0
  O2-  O1557  1  0.43750000  0.31250000  0.27403846  1.0
  O2-  O1558  1  0.43750000  0.56250000  0.27403846  1.0
  O2-  O1559  1  0.43750000  0.81250000  0.27403846  1.0
  O2-  O1560  1  0.68750000  0.06250000  0.27403846  1.0
  O2-  O1561  1  0.68750000  0.31250000  0.27403846  1.0
  O2-  O1562  1  0.68750000  0.56250000  0.27403846  1.0
  O2-  O1563  1  0.68750000  0.81250000  0.27403846  1.0
  O2-  O1564  1  0.93750000  0.06250000  0.27403846  1.0
  O2-  O1565  1  0.93750000  0.31250000  0.27403846  1.0
  O2-  O1566  1  0.93750000  0.56250000  0.27403846  1.0
  O2-  O1567  1  0.93750000  0.81250000  0.27403846  1.0
  O2-  O1568  1  0.06250000  0.18750000  0.28365385  1.0
  O2-  O1569  1  0.06250000  0.43750000  0.28365385  1.0
  O2-  O1570  1  0.06250000  0.68750000  0.28365385  1.0
  O2-  O1571  1  0.06250000  0.93750000  0.28365385  1.0
  O2-  O1572  1  0.31250000  0.18750000  0.28365385  1.0
  O2-  O1573  1  0.31250000  0.43750000  0.28365385  1.0
  O2-  O1574  1  0.31250000  0.68750000  0.28365385  1.0
  O2-  O1575  1  0.31250000  0.93750000  0.28365385  1.0
  O2-  O1576  1  0.56250000  0.18750000  0.28365385  1.0
  O2-  O1577  1  0.56250000  0.43750000  0.28365385  1.0
  O2-  O1578  1  0.56250000  0.68750000  0.28365385  1.0
  O2-  O1579  1  0.56250000  0.93750000  0.28365385  1.0
  O2-  O1580  1  0.81250000  0.18750000  0.28365385  1.0
  O2-  O1581  1  0.81250000  0.43750000  0.28365385  1.0
  O2-  O1582  1  0.81250000  0.68750000  0.28365385  1.0
  O2-  O1583  1  0.81250000  0.93750000  0.28365385  1.0
  O2-  O1584  1  0.06250000  0.06250000  0.28365385  1.0
  O2-  O1585  1  0.06250000  0.31250000  0.28365385  1.0
  O2-  O1586  1  0.06250000  0.56250000  0.28365385  1.0
  O2-  O1587  1  0.06250000  0.81250000  0.28365385  1.0
  O2-  O1588  1  0.31250000  0.06250000  0.28365385  1.0
  O2-  O1589  1  0.31250000  0.31250000  0.28365385  1.0
  O2-  O1590  1  0.31250000  0.56250000  0.28365385  1.0
  O2-  O1591  1  0.31250000  0.81250000  0.28365385  1.0
  O2-  O1592  1  0.56250000  0.06250000  0.28365385  1.0
  O2-  O1593  1  0.56250000  0.31250000  0.28365385  1.0
  O2-  O1594  1  0.56250000  0.56250000  0.28365385  1.0
  O2-  O1595  1  0.56250000  0.81250000  0.28365385  1.0
  O2-  O1596  1  0.81250000  0.06250000  0.28365385  1.0
  O2-  O1597  1  0.81250000  0.31250000  0.28365385  1.0
  O2-  O1598  1  0.81250000  0.56250000  0.28365385  1.0
  O2-  O1599  1  0.81250000  0.81250000  0.28365385  1.0
  O2-  O1600  1  0.18750000  0.18750000  0.29326923  1.0
  O2-  O1601  1  0.18750000  0.43750000  0.29326923  1.0
  O2-  O1602  1  0.18750000  0.68750000  0.29326923  1.0
  O2-  O1603  1  0.18750000  0.93750000  0.29326923  1.0
  O2-  O1604  1  0.43750000  0.18750000  0.29326923  1.0
  O2-  O1605  1  0.43750000  0.43750000  0.29326923  1.0
  O2-  O1606  1  0.43750000  0.68750000  0.29326923  1.0
  O2-  O1607  1  0.43750000  0.93750000  0.29326923  1.0
  O2-  O1608  1  0.68750000  0.18750000  0.29326923  1.0
  O2-  O1609  1  0.68750000  0.43750000  0.29326923  1.0
  O2-  O1610  1  0.68750000  0.68750000  0.29326923  1.0
  O2-  O1611  1  0.68750000  0.93750000  0.29326923  1.0
  O2-  O1612  1  0.93750000  0.18750000  0.29326923  1.0
  O2-  O1613  1  0.93750000  0.43750000  0.29326923  1.0
  O2-  O1614  1  0.93750000  0.68750000  0.29326923  1.0
  O2-  O1615  1  0.93750000  0.93750000  0.29326923  1.0
  O2-  O1616  1  0.18750000  0.06250000  0.29326923  1.0
  O2-  O1617  1  0.18750000  0.31250000  0.29326923  1.0
  O2-  O1618  1  0.18750000  0.56250000  0.29326923  1.0
  O2-  O1619  1  0.18750000  0.81250000  0.29326923  1.0
  O2-  O1620  1  0.43750000  0.06250000  0.29326923  1.0
  O2-  O1621  1  0.43750000  0.31250000  0.29326923  1.0
  O2-  O1622  1  0.43750000  0.56250000  0.29326923  1.0
  O2-  O1623  1  0.43750000  0.81250000  0.29326923  1.0
  O2-  O1624  1  0.68750000  0.06250000  0.29326923  1.0
  O2-  O1625  1  0.68750000  0.31250000  0.29326923  1.0
  O2-  O1626  1  0.68750000  0.56250000  0.29326923  1.0
  O2-  O1627  1  0.68750000  0.81250000  0.29326923  1.0
  O2-  O1628  1  0.93750000  0.06250000  0.29326923  1.0
  O2-  O1629  1  0.93750000  0.31250000  0.29326923  1.0
  O2-  O1630  1  0.93750000  0.56250000  0.29326923  1.0
  O2-  O1631  1  0.93750000  0.81250000  0.29326923  1.0
  O2-  O1632  1  0.06250000  0.18750000  0.30288462  1.0
  O2-  O1633  1  0.06250000  0.43750000  0.30288462  1.0
  O2-  O1634  1  0.06250000  0.68750000  0.30288462  1.0
  O2-  O1635  1  0.06250000  0.93750000  0.30288462  1.0
  O2-  O1636  1  0.31250000  0.18750000  0.30288462  1.0
  O2-  O1637  1  0.31250000  0.43750000  0.30288462  1.0
  O2-  O1638  1  0.31250000  0.68750000  0.30288462  1.0
  O2-  O1639  1  0.31250000  0.93750000  0.30288462  1.0
  O2-  O1640  1  0.56250000  0.18750000  0.30288462  1.0
  O2-  O1641  1  0.56250000  0.43750000  0.30288462  1.0
  O2-  O1642  1  0.56250000  0.68750000  0.30288462  1.0
  O2-  O1643  1  0.56250000  0.93750000  0.30288462  1.0
  O2-  O1644  1  0.81250000  0.18750000  0.30288462  1.0
  O2-  O1645  1  0.81250000  0.43750000  0.30288462  1.0
  O2-  O1646  1  0.81250000  0.68750000  0.30288462  1.0
  O2-  O1647  1  0.81250000  0.93750000  0.30288462  1.0
  O2-  O1648  1  0.06250000  0.06250000  0.30288462  1.0
  O2-  O1649  1  0.06250000  0.31250000  0.30288462  1.0
  O2-  O1650  1  0.06250000  0.56250000  0.30288462  1.0
  O2-  O1651  1  0.06250000  0.81250000  0.30288462  1.0
  O2-  O1652  1  0.31250000  0.06250000  0.30288462  1.0
  O2-  O1653  1  0.31250000  0.31250000  0.30288462  1.0
  O2-  O1654  1  0.31250000  0.56250000  0.30288462  1.0
  O2-  O1655  1  0.31250000  0.81250000  0.30288462  1.0
  O2-  O1656  1  0.56250000  0.06250000  0.30288462  1.0
  O2-  O1657  1  0.56250000  0.31250000  0.30288462  1.0
  O2-  O1658  1  0.56250000  0.56250000  0.30288462  1.0
  O2-  O1659  1  0.56250000  0.81250000  0.30288462  1.0
  O2-  O1660  1  0.81250000  0.06250000  0.30288462  1.0
  O2-  O1661  1  0.81250000  0.31250000  0.30288462  1.0
  O2-  O1662  1  0.81250000  0.56250000  0.30288462  1.0
  O2-  O1663  1  0.81250000  0.81250000  0.30288462  1.0
  O2-  O1664  1  0.18750000  0.18750000  0.31250000  1.0
  O2-  O1665  1  0.18750000  0.43750000  0.31250000  1.0
  O2-  O1666  1  0.18750000  0.68750000  0.31250000  1.0
  O2-  O1667  1  0.18750000  0.93750000  0.31250000  1.0
  O2-  O1668  1  0.43750000  0.18750000  0.31250000  1.0
  O2-  O1669  1  0.43750000  0.43750000  0.31250000  1.0
  O2-  O1670  1  0.43750000  0.68750000  0.31250000  1.0
  O2-  O1671  1  0.43750000  0.93750000  0.31250000  1.0
  O2-  O1672  1  0.68750000  0.18750000  0.31250000  1.0
  O2-  O1673  1  0.68750000  0.43750000  0.31250000  1.0
  O2-  O1674  1  0.68750000  0.68750000  0.31250000  1.0
  O2-  O1675  1  0.68750000  0.93750000  0.31250000  1.0
  O2-  O1676  1  0.93750000  0.18750000  0.31250000  1.0
  O2-  O1677  1  0.93750000  0.43750000  0.31250000  1.0
  O2-  O1678  1  0.93750000  0.68750000  0.31250000  1.0
  O2-  O1679  1  0.93750000  0.93750000  0.31250000  1.0
  O2-  O1680  1  0.18750000  0.06250000  0.31250000  1.0
  O2-  O1681  1  0.18750000  0.31250000  0.31250000  1.0
  O2-  O1682  1  0.18750000  0.56250000  0.31250000  1.0
  O2-  O1683  1  0.18750000  0.81250000  0.31250000  1.0
  O2-  O1684  1  0.43750000  0.06250000  0.31250000  1.0
  O2-  O1685  1  0.43750000  0.31250000  0.31250000  1.0
  O2-  O1686  1  0.43750000  0.56250000  0.31250000  1.0
  O2-  O1687  1  0.43750000  0.81250000  0.31250000  1.0
  O2-  O1688  1  0.68750000  0.06250000  0.31250000  1.0
  O2-  O1689  1  0.68750000  0.31250000  0.31250000  1.0
  O2-  O1690  1  0.68750000  0.56250000  0.31250000  1.0
  O2-  O1691  1  0.68750000  0.81250000  0.31250000  1.0
  O2-  O1692  1  0.93750000  0.06250000  0.31250000  1.0
  O2-  O1693  1  0.93750000  0.31250000  0.31250000  1.0
  O2-  O1694  1  0.93750000  0.56250000  0.31250000  1.0
  O2-  O1695  1  0.93750000  0.81250000  0.31250000  1.0
  O2-  O1696  1  0.06250000  0.18750000  0.32211538  1.0
  O2-  O1697  1  0.06250000  0.43750000  0.32211538  1.0
  O2-  O1698  1  0.06250000  0.68750000  0.32211538  1.0
  O2-  O1699  1  0.06250000  0.93750000  0.32211538  1.0
  O2-  O1700  1  0.31250000  0.18750000  0.32211538  1.0
  O2-  O1701  1  0.31250000  0.43750000  0.32211538  1.0
  O2-  O1702  1  0.31250000  0.68750000  0.32211538  1.0
  O2-  O1703  1  0.31250000  0.93750000  0.32211538  1.0
  O2-  O1704  1  0.56250000  0.18750000  0.32211538  1.0
  O2-  O1705  1  0.56250000  0.43750000  0.32211538  1.0
  O2-  O1706  1  0.56250000  0.68750000  0.32211538  1.0
  O2-  O1707  1  0.56250000  0.93750000  0.32211538  1.0
  O2-  O1708  1  0.81250000  0.18750000  0.32211538  1.0
  O2-  O1709  1  0.81250000  0.43750000  0.32211538  1.0
  O2-  O1710  1  0.81250000  0.68750000  0.32211538  1.0
  O2-  O1711  1  0.81250000  0.93750000  0.32211538  1.0
  O2-  O1712  1  0.06250000  0.06250000  0.32211538  1.0
  O2-  O1713  1  0.06250000  0.31250000  0.32211538  1.0
  O2-  O1714  1  0.06250000  0.56250000  0.32211538  1.0
  O2-  O1715  1  0.06250000  0.81250000  0.32211538  1.0
  O2-  O1716  1  0.31250000  0.06250000  0.32211538  1.0
  O2-  O1717  1  0.31250000  0.31250000  0.32211538  1.0
  O2-  O1718  1  0.31250000  0.56250000  0.32211538  1.0
  O2-  O1719  1  0.31250000  0.81250000  0.32211538  1.0
  O2-  O1720  1  0.56250000  0.06250000  0.32211538  1.0
  O2-  O1721  1  0.56250000  0.31250000  0.32211538  1.0
  O2-  O1722  1  0.56250000  0.56250000  0.32211538  1.0
  O2-  O1723  1  0.56250000  0.81250000  0.32211538  1.0
  O2-  O1724  1  0.81250000  0.06250000  0.32211538  1.0
  O2-  O1725  1  0.81250000  0.31250000  0.32211538  1.0
  O2-  O1726  1  0.81250000  0.56250000  0.32211538  1.0
  O2-  O1727  1  0.81250000  0.81250000  0.32211538  1.0
  O2-  O1728  1  0.18750000  0.18750000  0.33173077  1.0
  O2-  O1729  1  0.18750000  0.43750000  0.33173077  1.0
  O2-  O1730  1  0.18750000  0.68750000  0.33173077  1.0
  O2-  O1731  1  0.18750000  0.93750000  0.33173077  1.0
  O2-  O1732  1  0.43750000  0.18750000  0.33173077  1.0
  O2-  O1733  1  0.43750000  0.43750000  0.33173077  1.0
  O2-  O1734  1  0.43750000  0.68750000  0.33173077  1.0
  O2-  O1735  1  0.43750000  0.93750000  0.33173077  1.0
  O2-  O1736  1  0.68750000  0.18750000  0.33173077  1.0
  O2-  O1737  1  0.68750000  0.43750000  0.33173077  1.0
  O2-  O1738  1  0.68750000  0.68750000  0.33173077  1.0
  O2-  O1739  1  0.68750000  0.93750000  0.33173077  1.0
  O2-  O1740  1  0.93750000  0.18750000  0.33173077  1.0
  O2-  O1741  1  0.93750000  0.43750000  0.33173077  1.0
  O2-  O1742  1  0.93750000  0.68750000  0.33173077  1.0
  O2-  O1743  1  0.93750000  0.93750000  0.33173077  1.0
  O2-  O1744  1  0.18750000  0.06250000  0.33173077  1.0
  O2-  O1745  1  0.18750000  0.31250000  0.33173077  1.0
  O2-  O1746  1  0.18750000  0.56250000  0.33173077  1.0
  O2-  O1747  1  0.18750000  0.81250000  0.33173077  1.0
  O2-  O1748  1  0.43750000  0.06250000  0.33173077  1.0
  O2-  O1749  1  0.43750000  0.31250000  0.33173077  1.0
  O2-  O1750  1  0.43750000  0.56250000  0.33173077  1.0
  O2-  O1751  1  0.43750000  0.81250000  0.33173077  1.0
  O2-  O1752  1  0.68750000  0.06250000  0.33173077  1.0
  O2-  O1753  1  0.68750000  0.31250000  0.33173077  1.0
  O2-  O1754  1  0.68750000  0.56250000  0.33173077  1.0
  O2-  O1755  1  0.68750000  0.81250000  0.33173077  1.0
  O2-  O1756  1  0.93750000  0.06250000  0.33173077  1.0
  O2-  O1757  1  0.93750000  0.31250000  0.33173077  1.0
  O2-  O1758  1  0.93750000  0.56250000  0.33173077  1.0
  O2-  O1759  1  0.93750000  0.81250000  0.33173077  1.0
  O2-  O1760  1  0.06250000  0.18750000  0.34134615  1.0
  O2-  O1761  1  0.06250000  0.43750000  0.34134615  1.0
  O2-  O1762  1  0.06250000  0.68750000  0.34134615  1.0
  O2-  O1763  1  0.06250000  0.93750000  0.34134615  1.0
  O2-  O1764  1  0.31250000  0.18750000  0.34134615  1.0
  O2-  O1765  1  0.31250000  0.43750000  0.34134615  1.0
  O2-  O1766  1  0.31250000  0.68750000  0.34134615  1.0
  O2-  O1767  1  0.31250000  0.93750000  0.34134615  1.0
  O2-  O1768  1  0.56250000  0.18750000  0.34134615  1.0
  O2-  O1769  1  0.56250000  0.43750000  0.34134615  1.0
  O2-  O1770  1  0.56250000  0.68750000  0.34134615  1.0
  O2-  O1771  1  0.56250000  0.93750000  0.34134615  1.0
  O2-  O1772  1  0.81250000  0.18750000  0.34134615  1.0
  O2-  O1773  1  0.81250000  0.43750000  0.34134615  1.0
  O2-  O1774  1  0.81250000  0.68750000  0.34134615  1.0
  O2-  O1775  1  0.81250000  0.93750000  0.34134615  1.0
  O2-  O1776  1  0.06250000  0.06250000  0.34134615  1.0
  O2-  O1777  1  0.06250000  0.31250000  0.34134615  1.0
  O2-  O1778  1  0.06250000  0.56250000  0.34134615  1.0
  O2-  O1779  1  0.06250000  0.81250000  0.34134615  1.0
  O2-  O1780  1  0.31250000  0.06250000  0.34134615  1.0
  O2-  O1781  1  0.31250000  0.31250000  0.34134615  1.0
  O2-  O1782  1  0.31250000  0.56250000  0.34134615  1.0
  O2-  O1783  1  0.31250000  0.81250000  0.34134615  1.0
  O2-  O1784  1  0.56250000  0.06250000  0.34134615  1.0
  O2-  O1785  1  0.56250000  0.31250000  0.34134615  1.0
  O2-  O1786  1  0.56250000  0.56250000  0.34134615  1.0
  O2-  O1787  1  0.56250000  0.81250000  0.34134615  1.0
  O2-  O1788  1  0.81250000  0.06250000  0.34134615  1.0
  O2-  O1789  1  0.81250000  0.31250000  0.34134615  1.0
  O2-  O1790  1  0.81250000  0.56250000  0.34134615  1.0
  O2-  O1791  1  0.81250000  0.81250000  0.34134615  1.0
  O2-  O1792  1  0.18750000  0.18750000  0.35096154  1.0
  O2-  O1793  1  0.18750000  0.43750000  0.35096154  1.0
  O2-  O1794  1  0.18750000  0.68750000  0.35096154  1.0
  O2-  O1795  1  0.18750000  0.93750000  0.35096154  1.0
  O2-  O1796  1  0.43750000  0.18750000  0.35096154  1.0
  O2-  O1797  1  0.43750000  0.43750000  0.35096154  1.0
  O2-  O1798  1  0.43750000  0.68750000  0.35096154  1.0
  O2-  O1799  1  0.43750000  0.93750000  0.35096154  1.0
  O2-  O1800  1  0.68750000  0.18750000  0.35096154  1.0
  O2-  O1801  1  0.68750000  0.43750000  0.35096154  1.0
  O2-  O1802  1  0.68750000  0.68750000  0.35096154  1.0
  O2-  O1803  1  0.68750000  0.93750000  0.35096154  1.0
  O2-  O1804  1  0.93750000  0.18750000  0.35096154  1.0
  O2-  O1805  1  0.93750000  0.43750000  0.35096154  1.0
  O2-  O1806  1  0.93750000  0.68750000  0.35096154  1.0
  O2-  O1807  1  0.93750000  0.93750000  0.35096154  1.0
  O2-  O1808  1  0.18750000  0.06250000  0.35096154  1.0
  O2-  O1809  1  0.18750000  0.31250000  0.35096154  1.0
  O2-  O1810  1  0.18750000  0.56250000  0.35096154  1.0
  O2-  O1811  1  0.18750000  0.81250000  0.35096154  1.0
  O2-  O1812  1  0.43750000  0.06250000  0.35096154  1.0
  O2-  O1813  1  0.43750000  0.31250000  0.35096154  1.0
  O2-  O1814  1  0.43750000  0.56250000  0.35096154  1.0
  O2-  O1815  1  0.43750000  0.81250000  0.35096154  1.0
  O2-  O1816  1  0.68750000  0.06250000  0.35096154  1.0
  O2-  O1817  1  0.68750000  0.31250000  0.35096154  1.0
  O2-  O1818  1  0.68750000  0.56250000  0.35096154  1.0
  O2-  O1819  1  0.68750000  0.81250000  0.35096154  1.0
  O2-  O1820  1  0.93750000  0.06250000  0.35096154  1.0
  O2-  O1821  1  0.93750000  0.31250000  0.35096154  1.0
  O2-  O1822  1  0.93750000  0.56250000  0.35096154  1.0
  O2-  O1823  1  0.93750000  0.81250000  0.35096154  1.0
  O2-  O1824  1  0.06250000  0.18750000  0.36057692  1.0
  O2-  O1825  1  0.06250000  0.43750000  0.36057692  1.0
  O2-  O1826  1  0.06250000  0.68750000  0.36057692  1.0
  O2-  O1827  1  0.06250000  0.93750000  0.36057692  1.0
  O2-  O1828  1  0.31250000  0.18750000  0.36057692  1.0
  O2-  O1829  1  0.31250000  0.43750000  0.36057692  1.0
  O2-  O1830  1  0.31250000  0.68750000  0.36057692  1.0
  O2-  O1831  1  0.31250000  0.93750000  0.36057692  1.0
  O2-  O1832  1  0.56250000  0.18750000  0.36057692  1.0
  O2-  O1833  1  0.56250000  0.43750000  0.36057692  1.0
  O2-  O1834  1  0.56250000  0.68750000  0.36057692  1.0
  O2-  O1835  1  0.56250000  0.93750000  0.36057692  1.0
  O2-  O1836  1  0.81250000  0.18750000  0.36057692  1.0
  O2-  O1837  1  0.81250000  0.43750000  0.36057692  1.0
  O2-  O1838  1  0.81250000  0.68750000  0.36057692  1.0
  O2-  O1839  1  0.81250000  0.93750000  0.36057692  1.0
  O2-  O1840  1  0.06250000  0.06250000  0.36057692  1.0
  O2-  O1841  1  0.06250000  0.31250000  0.36057692  1.0
  O2-  O1842  1  0.06250000  0.56250000  0.36057692  1.0
  O2-  O1843  1  0.06250000  0.81250000  0.36057692  1.0
  O2-  O1844  1  0.31250000  0.06250000  0.36057692  1.0
  O2-  O1845  1  0.31250000  0.31250000  0.36057692  1.0
  O2-  O1846  1  0.31250000  0.56250000  0.36057692  1.0
  O2-  O1847  1  0.31250000  0.81250000  0.36057692  1.0
  O2-  O1848  1  0.56250000  0.06250000  0.36057692  1.0
  O2-  O1849  1  0.56250000  0.31250000  0.36057692  1.0
  O2-  O1850  1  0.56250000  0.56250000  0.36057692  1.0
  O2-  O1851  1  0.56250000  0.81250000  0.36057692  1.0
  O2-  O1852  1  0.81250000  0.06250000  0.36057692  1.0
  O2-  O1853  1  0.81250000  0.31250000  0.36057692  1.0
  O2-  O1854  1  0.81250000  0.56250000  0.36057692  1.0
  O2-  O1855  1  0.81250000  0.81250000  0.36057692  1.0
  O2-  O1856  1  0.18750000  0.18750000  0.37019231  1.0
  O2-  O1857  1  0.18750000  0.43750000  0.37019231  1.0
  O2-  O1858  1  0.18750000  0.68750000  0.37019231  1.0
  O2-  O1859  1  0.18750000  0.93750000  0.37019231  1.0
  O2-  O1860  1  0.43750000  0.18750000  0.37019231  1.0
  O2-  O1861  1  0.43750000  0.43750000  0.37019231  1.0
  O2-  O1862  1  0.43750000  0.68750000  0.37019231  1.0
  O2-  O1863  1  0.43750000  0.93750000  0.37019231  1.0
  O2-  O1864  1  0.68750000  0.18750000  0.37019231  1.0
  O2-  O1865  1  0.68750000  0.43750000  0.37019231  1.0
  O2-  O1866  1  0.68750000  0.68750000  0.37019231  1.0
  O2-  O1867  1  0.68750000  0.93750000  0.37019231  1.0
  O2-  O1868  1  0.93750000  0.18750000  0.37019231  1.0
  O2-  O1869  1  0.93750000  0.43750000  0.37019231  1.0
  O2-  O1870  1  0.93750000  0.68750000  0.37019231  1.0
  O2-  O1871  1  0.93750000  0.93750000  0.37019231  1.0
  O2-  O1872  1  0.18750000  0.06250000  0.37019231  1.0
  O2-  O1873  1  0.18750000  0.31250000  0.37019231  1.0
  O2-  O1874  1  0.18750000  0.56250000  0.37019231  1.0
  O2-  O1875  1  0.18750000  0.81250000  0.37019231  1.0
  O2-  O1876  1  0.43750000  0.06250000  0.37019231  1.0
  O2-  O1877  1  0.43750000  0.31250000  0.37019231  1.0
  O2-  O1878  1  0.43750000  0.56250000  0.37019231  1.0
  O2-  O1879  1  0.43750000  0.81250000  0.37019231  1.0
  O2-  O1880  1  0.68750000  0.06250000  0.37019231  1.0
  O2-  O1881  1  0.68750000  0.31250000  0.37019231  1.0
  O2-  O1882  1  0.68750000  0.56250000  0.37019231  1.0
  O2-  O1883  1  0.68750000  0.81250000  0.37019231  1.0
  O2-  O1884  1  0.93750000  0.06250000  0.37019231  1.0
  O2-  O1885  1  0.93750000  0.31250000  0.37019231  1.0
  O2-  O1886  1  0.93750000  0.56250000  0.37019231  1.0
  O2-  O1887  1  0.93750000  0.81250000  0.37019231  1.0
  O2-  O1888  1  0.06250000  0.18750000  0.37980769  1.0
  O2-  O1889  1  0.06250000  0.43750000  0.37980769  1.0
  O2-  O1890  1  0.06250000  0.68750000  0.37980769  1.0
  O2-  O1891  1  0.06250000  0.93750000  0.37980769  1.0
  O2-  O1892  1  0.31250000  0.18750000  0.37980769  1.0
  O2-  O1893  1  0.31250000  0.43750000  0.37980769  1.0
  O2-  O1894  1  0.31250000  0.68750000  0.37980769  1.0
  O2-  O1895  1  0.31250000  0.93750000  0.37980769  1.0
  O2-  O1896  1  0.56250000  0.18750000  0.37980769  1.0
  O2-  O1897  1  0.56250000  0.43750000  0.37980769  1.0
  O2-  O1898  1  0.56250000  0.68750000  0.37980769  1.0
  O2-  O1899  1  0.56250000  0.93750000  0.37980769  1.0
  O2-  O1900  1  0.81250000  0.18750000  0.37980769  1.0
  O2-  O1901  1  0.81250000  0.43750000  0.37980769  1.0
  O2-  O1902  1  0.81250000  0.68750000  0.37980769  1.0
  O2-  O1903  1  0.81250000  0.93750000  0.37980769  1.0
  O2-  O1904  1  0.06250000  0.06250000  0.37980769  1.0
  O2-  O1905  1  0.06250000  0.31250000  0.37980769  1.0
  O2-  O1906  1  0.06250000  0.56250000  0.37980769  1.0
  O2-  O1907  1  0.06250000  0.81250000  0.37980769  1.0
  O2-  O1908  1  0.31250000  0.06250000  0.37980769  1.0
  O2-  O1909  1  0.31250000  0.31250000  0.37980769  1.0
  O2-  O1910  1  0.31250000  0.56250000  0.37980769  1.0
  O2-  O1911  1  0.31250000  0.81250000  0.37980769  1.0
  O2-  O1912  1  0.56250000  0.06250000  0.37980769  1.0
  O2-  O1913  1  0.56250000  0.31250000  0.37980769  1.0
  O2-  O1914  1  0.56250000  0.56250000  0.37980769  1.0
  O2-  O1915  1  0.56250000  0.81250000  0.37980769  1.0
  O2-  O1916  1  0.81250000  0.06250000  0.37980769  1.0
  O2-  O1917  1  0.81250000  0.31250000  0.37980769  1.0
  O2-  O1918  1  0.81250000  0.56250000  0.37980769  1.0
  O2-  O1919  1  0.81250000  0.81250000  0.37980769  1.0
