data_image0
_chemical_formula_structural       Ce4O8Ce4O8Ce4O8Ce4O8Ce4O8Ce4O8Ce4O8Ce4O8Ce4O8Ce4O8Ce4O8Ce4O8Ce4O8Ce4O8Ce4O8Ce4O8Ce4O8Ce4O8Ce4O8Ce4O8Ce4O8Ce4O8Ce4O8Ce4O8Ce4O8Ce4O8Ce4O8Ce4O8Ce4O8Ce4O8Ce4O8Ce4O8Ce4O8Ce4O8Ce4O8Ce4O8Ce4O8Ce4O8Ce4O8Ce4O8Ce4O8Ce4O8Ce4O8Ce4O8Ce4O8Ce4O8Ce4O8Ce4O8Ce4O8Ce4O8Ce4O8Ce4O8Ce4O8Ce4O8Ce4O8Ce4O8Ce4O8Ce4O8Ce4O8Ce4O8Ce4O8Ce4O8Ce4O8Ce4O8Ce4O8Ce4O8Ce4O8Ce4O8Ce4O8Ce4O8Ce4O8Ce4O8Ce4O8Ce4O8Ce4O8Ce4O8Ce4O8Ce4O8Ce4O8Ce4O8
_chemical_formula_sum              "Ce320 O640"
_cell_length_a       15.4643
_cell_length_b       10.9349
_cell_length_c       75.3884
_cell_angle_alpha    90
_cell_angle_beta     90
_cell_angle_gamma    90

_space_group_name_H-M_alt    "P 1"
_space_group_IT_number       1

loop_
  _space_group_symop_operation_xyz
  'x, y, z'

loop_
  _atom_site_type_symbol
  _atom_site_label
  _atom_site_symmetry_multiplicity
  _atom_site_fract_x
  _atom_site_fract_y
  _atom_site_fract_z
  _atom_site_occupancy
  Ce  Ce1       1.0  0.00000  0.00000  0.00000  1.0000
  Ce  Ce2       1.0  0.25000  0.00000  0.00000  1.0000
  Ce  Ce3       1.0  0.12500  0.25000  0.02564  1.0000
  Ce  Ce4       1.0  0.37500  0.25000  0.02564  1.0000
  O   O1        1.0  0.50000  0.37500  0.02564  1.0000
  O   O2        1.0  0.25000  0.12500  0.02564  1.0000
  O   O3        1.0  0.37500  0.37500  0.00000  1.0000
  O   O4        1.0  0.12500  0.12500  0.00000  1.0000
  O   O5        1.0  0.25000  0.37500  0.02564  1.0000
  O   O6        1.0  0.50000  0.12500  0.02564  1.0000
  O   O7        1.0  0.12500  0.37500  0.00000  1.0000
  O   O8        1.0  0.37500  0.12500  0.00000  1.0000
  Ce  Ce5       1.0  0.25000  0.00000  0.05128  1.0000
  Ce  Ce6       1.0  0.50000  0.00000  0.05128  1.0000
  Ce  Ce7       1.0  0.37500  0.25000  0.07692  1.0000
  Ce  Ce8       1.0  0.12500  0.25000  0.07692  1.0000
  O   O9        1.0  0.25000  0.37500  0.07692  1.0000
  O   O10       1.0  0.50000  0.12500  0.07692  1.0000
  O   O11       1.0  0.12500  0.37500  0.05128  1.0000
  O   O12       1.0  0.37500  0.12500  0.05128  1.0000
  O   O13       1.0  0.50000  0.37500  0.07692  1.0000
  O   O14       1.0  0.25000  0.12500  0.07692  1.0000
  O   O15       1.0  0.37500  0.37500  0.05128  1.0000
  O   O16       1.0  0.12500  0.12500  0.05128  1.0000
  Ce  Ce9       1.0  0.50000  0.00000  0.10256  1.0000
  Ce  Ce10      1.0  0.25000  0.00000  0.10256  1.0000
  Ce  Ce11      1.0  0.12500  0.25000  0.12821  1.0000
  Ce  Ce12      1.0  0.37500  0.25000  0.12821  1.0000
  O   O17       1.0  0.50000  0.37500  0.12821  1.0000
  O   O18       1.0  0.25000  0.12500  0.12821  1.0000
  O   O19       1.0  0.37500  0.37500  0.10256  1.0000
  O   O20       1.0  0.12500  0.12500  0.10256  1.0000
  O   O21       1.0  0.25000  0.37500  0.12821  1.0000
  O   O22       1.0  0.50000  0.12500  0.12821  1.0000
  O   O23       1.0  0.12500  0.37500  0.10256  1.0000
  O   O24       1.0  0.37500  0.12500  0.10256  1.0000
  Ce  Ce13      1.0  0.25000  0.00000  0.15385  1.0000
  Ce  Ce14      1.0  0.50000  0.00000  0.15385  1.0000
  Ce  Ce15      1.0  0.37500  0.25000  0.17949  1.0000
  Ce  Ce16      1.0  0.12500  0.25000  0.17949  1.0000
  O   O25       1.0  0.25000  0.37500  0.17949  1.0000
  O   O26       1.0  0.50000  0.12500  0.17949  1.0000
  O   O27       1.0  0.12500  0.37500  0.15385  1.0000
  O   O28       1.0  0.37500  0.12500  0.15385  1.0000
  O   O29       1.0  0.50000  0.37500  0.17949  1.0000
  O   O30       1.0  0.25000  0.12500  0.17949  1.0000
  O   O31       1.0  0.37500  0.37500  0.15385  1.0000
  O   O32       1.0  0.12500  0.12500  0.15385  1.0000
  Ce  Ce17      1.0  0.50000  0.00000  0.20513  1.0000
  Ce  Ce18      1.0  0.25000  0.00000  0.20513  1.0000
  Ce  Ce19      1.0  0.12500  0.25000  0.23077  1.0000
  Ce  Ce20      1.0  0.37500  0.25000  0.23077  1.0000
  O   O33       1.0  0.50000  0.37500  0.23077  1.0000
  O   O34       1.0  0.25000  0.12500  0.23077  1.0000
  O   O35       1.0  0.37500  0.37500  0.20513  1.0000
  O   O36       1.0  0.12500  0.12500  0.20513  1.0000
  O   O37       1.0  0.25000  0.37500  0.23077  1.0000
  O   O38       1.0  0.50000  0.12500  0.23077  1.0000
  O   O39       1.0  0.12500  0.37500  0.20513  1.0000
  O   O40       1.0  0.37500  0.12500  0.20513  1.0000
  Ce  Ce21      1.0  0.25000  0.00000  0.25641  1.0000
  Ce  Ce22      1.0  0.50000  0.00000  0.25641  1.0000
  Ce  Ce23      1.0  0.37500  0.25000  0.28205  1.0000
  Ce  Ce24      1.0  0.12500  0.25000  0.28205  1.0000
  O   O41       1.0  0.25000  0.37500  0.28205  1.0000
  O   O42       1.0  0.50000  0.12500  0.28205  1.0000
  O   O43       1.0  0.12500  0.37500  0.25641  1.0000
  O   O44       1.0  0.37500  0.12500  0.25641  1.0000
  O   O45       1.0  0.50000  0.37500  0.28205  1.0000
  O   O46       1.0  0.25000  0.12500  0.28205  1.0000
  O   O47       1.0  0.37500  0.37500  0.25641  1.0000
  O   O48       1.0  0.12500  0.12500  0.25641  1.0000
  Ce  Ce25      1.0  0.50000  0.00000  0.30769  1.0000
  Ce  Ce26      1.0  0.25000  0.00000  0.30769  1.0000
  Ce  Ce27      1.0  0.12500  0.25000  0.33333  1.0000
  Ce  Ce28      1.0  0.37500  0.25000  0.33333  1.0000
  O   O49       1.0  0.50000  0.37500  0.33333  1.0000
  O   O50       1.0  0.25000  0.12500  0.33333  1.0000
  O   O51       1.0  0.37500  0.37500  0.30769  1.0000
  O   O52       1.0  0.12500  0.12500  0.30769  1.0000
  O   O53       1.0  0.25000  0.37500  0.33333  1.0000
  O   O54       1.0  0.50000  0.12500  0.33333  1.0000
  O   O55       1.0  0.12500  0.37500  0.30769  1.0000
  O   O56       1.0  0.37500  0.12500  0.30769  1.0000
  Ce  Ce29      1.0  0.25000  0.00000  0.35897  1.0000
  Ce  Ce30      1.0  0.50000  0.00000  0.35897  1.0000
  Ce  Ce31      1.0  0.37500  0.25000  0.38462  1.0000
  Ce  Ce32      1.0  0.12500  0.25000  0.38462  1.0000
  O   O57       1.0  0.25000  0.37500  0.38462  1.0000
  O   O58       1.0  0.50000  0.12500  0.38462  1.0000
  O   O59       1.0  0.12500  0.37500  0.35897  1.0000
  O   O60       1.0  0.37500  0.12500  0.35897  1.0000
  O   O61       1.0  0.50000  0.37500  0.38462  1.0000
  O   O62       1.0  0.25000  0.12500  0.38462  1.0000
  O   O63       1.0  0.37500  0.37500  0.35897  1.0000
  O   O64       1.0  0.12500  0.12500  0.35897  1.0000
  Ce  Ce33      1.0  0.50000  0.00000  0.41026  1.0000
  Ce  Ce34      1.0  0.25000  0.00000  0.41026  1.0000
  Ce  Ce35      1.0  0.12500  0.25000  0.43590  1.0000
  Ce  Ce36      1.0  0.37500  0.25000  0.43590  1.0000
  O   O65       1.0  0.50000  0.37500  0.43590  1.0000
  O   O66       1.0  0.25000  0.12500  0.43590  1.0000
  O   O67       1.0  0.37500  0.37500  0.41026  1.0000
  O   O68       1.0  0.12500  0.12500  0.41026  1.0000
  O   O69       1.0  0.25000  0.37500  0.43590  1.0000
  O   O70       1.0  0.50000  0.12500  0.43590  1.0000
  O   O71       1.0  0.12500  0.37500  0.41026  1.0000
  O   O72       1.0  0.37500  0.12500  0.41026  1.0000
  Ce  Ce37      1.0  0.25000  0.00000  0.46154  1.0000
  Ce  Ce38      1.0  0.50000  0.00000  0.46154  1.0000
  Ce  Ce39      1.0  0.37500  0.25000  0.48718  1.0000
  Ce  Ce40      1.0  0.12500  0.25000  0.48718  1.0000
  O   O73       1.0  0.25000  0.37500  0.48718  1.0000
  O   O74       1.0  0.50000  0.12500  0.48718  1.0000
  O   O75       1.0  0.12500  0.37500  0.46154  1.0000
  O   O76       1.0  0.37500  0.12500  0.46154  1.0000
  O   O77       1.0  0.50000  0.37500  0.48718  1.0000
  O   O78       1.0  0.25000  0.12500  0.48718  1.0000
  O   O79       1.0  0.37500  0.37500  0.46154  1.0000
  O   O80       1.0  0.12500  0.12500  0.46154  1.0000
  Ce  Ce41      1.0  0.50000  0.00000  0.51282  1.0000
  Ce  Ce42      1.0  0.25000  0.00000  0.51282  1.0000
  Ce  Ce43      1.0  0.12500  0.25000  0.53846  1.0000
  Ce  Ce44      1.0  0.37500  0.25000  0.53846  1.0000
  O   O81       1.0  0.50000  0.37500  0.53846  1.0000
  O   O82       1.0  0.25000  0.12500  0.53846  1.0000
  O   O83       1.0  0.37500  0.37500  0.51282  1.0000
  O   O84       1.0  0.12500  0.12500  0.51282  1.0000
  O   O85       1.0  0.25000  0.37500  0.53846  1.0000
  O   O86       1.0  0.50000  0.12500  0.53846  1.0000
  O   O87       1.0  0.12500  0.37500  0.51282  1.0000
  O   O88       1.0  0.37500  0.12500  0.51282  1.0000
  Ce  Ce45      1.0  0.25000  0.00000  0.56410  1.0000
  Ce  Ce46      1.0  0.50000  0.00000  0.56410  1.0000
  Ce  Ce47      1.0  0.37500  0.25000  0.58974  1.0000
  Ce  Ce48      1.0  0.12500  0.25000  0.58974  1.0000
  O   O89       1.0  0.25000  0.37500  0.58974  1.0000
  O   O90       1.0  0.50000  0.12500  0.58974  1.0000
  O   O91       1.0  0.12500  0.37500  0.56410  1.0000
  O   O92       1.0  0.37500  0.12500  0.56410  1.0000
  O   O93       1.0  0.50000  0.37500  0.58974  1.0000
  O   O94       1.0  0.25000  0.12500  0.58974  1.0000
  O   O95       1.0  0.37500  0.37500  0.56410  1.0000
  O   O96       1.0  0.12500  0.12500  0.56410  1.0000
  Ce  Ce49      1.0  0.50000  0.00000  0.61538  1.0000
  Ce  Ce50      1.0  0.25000  0.00000  0.61538  1.0000
  Ce  Ce51      1.0  0.12500  0.25000  0.64103  1.0000
  Ce  Ce52      1.0  0.37500  0.25000  0.64103  1.0000
  O   O97       1.0  0.50000  0.37500  0.64103  1.0000
  O   O98       1.0  0.25000  0.12500  0.64103  1.0000
  O   O99       1.0  0.37500  0.37500  0.61538  1.0000
  O   O100      1.0  0.12500  0.12500  0.61538  1.0000
  O   O101      1.0  0.25000  0.37500  0.64103  1.0000
  O   O102      1.0  0.50000  0.12500  0.64103  1.0000
  O   O103      1.0  0.12500  0.37500  0.61538  1.0000
  O   O104      1.0  0.37500  0.12500  0.61538  1.0000
  Ce  Ce53      1.0  0.25000  0.00000  0.66667  1.0000
  Ce  Ce54      1.0  0.50000  0.00000  0.66667  1.0000
  Ce  Ce55      1.0  0.37500  0.25000  0.69231  1.0000
  Ce  Ce56      1.0  0.12500  0.25000  0.69231  1.0000
  O   O105      1.0  0.25000  0.37500  0.69231  1.0000
  O   O106      1.0  0.50000  0.12500  0.69231  1.0000
  O   O107      1.0  0.12500  0.37500  0.66667  1.0000
  O   O108      1.0  0.37500  0.12500  0.66667  1.0000
  O   O109      1.0  0.50000  0.37500  0.69231  1.0000
  O   O110      1.0  0.25000  0.12500  0.69231  1.0000
  O   O111      1.0  0.37500  0.37500  0.66667  1.0000
  O   O112      1.0  0.12500  0.12500  0.66667  1.0000
  Ce  Ce57      1.0  0.50000  0.00000  0.71795  1.0000
  Ce  Ce58      1.0  0.25000  0.00000  0.71795  1.0000
  Ce  Ce59      1.0  0.12500  0.25000  0.74359  1.0000
  Ce  Ce60      1.0  0.37500  0.25000  0.74359  1.0000
  O   O113      1.0  0.50000  0.37500  0.74359  1.0000
  O   O114      1.0  0.25000  0.12500  0.74359  1.0000
  O   O115      1.0  0.37500  0.37500  0.71795  1.0000
  O   O116      1.0  0.12500  0.12500  0.71795  1.0000
  O   O117      1.0  0.25000  0.37500  0.74359  1.0000
  O   O118      1.0  0.50000  0.12500  0.74359  1.0000
  O   O119      1.0  0.12500  0.37500  0.71795  1.0000
  O   O120      1.0  0.37500  0.12500  0.71795  1.0000
  Ce  Ce61      1.0  0.25000  0.00000  0.76923  1.0000
  Ce  Ce62      1.0  0.50000  0.00000  0.76923  1.0000
  Ce  Ce63      1.0  0.37500  0.25000  0.79487  1.0000
  Ce  Ce64      1.0  0.12500  0.25000  0.79487  1.0000
  O   O121      1.0  0.25000  0.37500  0.79487  1.0000
  O   O122      1.0  0.50000  0.12500  0.79487  1.0000
  O   O123      1.0  0.12500  0.37500  0.76923  1.0000
  O   O124      1.0  0.37500  0.12500  0.76923  1.0000
  O   O125      1.0  0.50000  0.37500  0.79487  1.0000
  O   O126      1.0  0.25000  0.12500  0.79487  1.0000
  O   O127      1.0  0.37500  0.37500  0.76923  1.0000
  O   O128      1.0  0.12500  0.12500  0.76923  1.0000
  Ce  Ce65      1.0  0.50000  0.00000  0.82051  1.0000
  Ce  Ce66      1.0  0.25000  0.00000  0.82051  1.0000
  Ce  Ce67      1.0  0.12500  0.25000  0.84615  1.0000
  Ce  Ce68      1.0  0.37500  0.25000  0.84615  1.0000
  O   O129      1.0  0.50000  0.37500  0.84615  1.0000
  O   O130      1.0  0.25000  0.12500  0.84615  1.0000
  O   O131      1.0  0.37500  0.37500  0.82051  1.0000
  O   O132      1.0  0.12500  0.12500  0.82051  1.0000
  O   O133      1.0  0.25000  0.37500  0.84615  1.0000
  O   O134      1.0  0.50000  0.12500  0.84615  1.0000
  O   O135      1.0  0.12500  0.37500  0.82051  1.0000
  O   O136      1.0  0.37500  0.12500  0.82051  1.0000
  Ce  Ce69      1.0  0.25000  0.00000  0.87179  1.0000
  Ce  Ce70      1.0  0.50000  0.00000  0.87179  1.0000
  Ce  Ce71      1.0  0.37500  0.25000  0.89744  1.0000
  Ce  Ce72      1.0  0.12500  0.25000  0.89744  1.0000
  O   O137      1.0  0.25000  0.37500  0.89744  1.0000
  O   O138      1.0  0.50000  0.12500  0.89744  1.0000
  O   O139      1.0  0.12500  0.37500  0.87179  1.0000
  O   O140      1.0  0.37500  0.12500  0.87179  1.0000
  O   O141      1.0  0.50000  0.37500  0.89744  1.0000
  O   O142      1.0  0.25000  0.12500  0.89744  1.0000
  O   O143      1.0  0.37500  0.37500  0.87179  1.0000
  O   O144      1.0  0.12500  0.12500  0.87179  1.0000
  Ce  Ce73      1.0  0.50000  0.00000  0.92308  1.0000
  Ce  Ce74      1.0  0.25000  0.00000  0.92308  1.0000
  Ce  Ce75      1.0  0.12500  0.25000  0.94872  1.0000
  Ce  Ce76      1.0  0.37500  0.25000  0.94872  1.0000
  O   O145      1.0  0.50000  0.37500  0.94872  1.0000
  O   O146      1.0  0.25000  0.12500  0.94872  1.0000
  O   O147      1.0  0.37500  0.37500  0.92308  1.0000
  O   O148      1.0  0.12500  0.12500  0.92308  1.0000
  O   O149      1.0  0.25000  0.37500  0.94872  1.0000
  O   O150      1.0  0.50000  0.12500  0.94872  1.0000
  O   O151      1.0  0.12500  0.37500  0.92308  1.0000
  O   O152      1.0  0.37500  0.12500  0.92308  1.0000
  Ce  Ce77      1.0  0.25000  0.00000  0.97436  1.0000
  Ce  Ce78      1.0  0.50000  0.00000  0.97436  1.0000
  Ce  Ce79      1.0  0.37500  0.25000  1.00000  1.0000
  Ce  Ce80      1.0  0.12500  0.25000  1.00000  1.0000
  O   O153      1.0  0.25000  0.37500  1.00000  1.0000
  O   O154      1.0  0.50000  0.12500  1.00000  1.0000
  O   O155      1.0  0.12500  0.37500  0.97436  1.0000
  O   O156      1.0  0.37500  0.12500  0.97436  1.0000
  O   O157      1.0  0.50000  0.37500  1.00000  1.0000
  O   O158      1.0  0.25000  0.12500  1.00000  1.0000
  O   O159      1.0  0.37500  0.37500  0.97436  1.0000
  O   O160      1.0  0.12500  0.12500  0.97436  1.0000
  Ce  Ce81      1.0  0.00000  0.50000  0.00000  1.0000
  Ce  Ce82      1.0  0.25000  0.50000  0.00000  1.0000
  Ce  Ce83      1.0  0.12500  0.75000  0.02564  1.0000
  Ce  Ce84      1.0  0.37500  0.75000  0.02564  1.0000
  O   O161      1.0  0.50000  0.87500  0.02564  1.0000
  O   O162      1.0  0.25000  0.62500  0.02564  1.0000
  O   O163      1.0  0.37500  0.87500  0.00000  1.0000
  O   O164      1.0  0.12500  0.62500  0.00000  1.0000
  O   O165      1.0  0.25000  0.87500  0.02564  1.0000
  O   O166      1.0  0.50000  0.62500  0.02564  1.0000
  O   O167      1.0  0.12500  0.87500  0.00000  1.0000
  O   O168      1.0  0.37500  0.62500  0.00000  1.0000
  Ce  Ce85      1.0  0.25000  0.50000  0.05128  1.0000
  Ce  Ce86      1.0  0.50000  0.50000  0.05128  1.0000
  Ce  Ce87      1.0  0.37500  0.75000  0.07692  1.0000
  Ce  Ce88      1.0  0.12500  0.75000  0.07692  1.0000
  O   O169      1.0  0.25000  0.87500  0.07692  1.0000
  O   O170      1.0  0.50000  0.62500  0.07692  1.0000
  O   O171      1.0  0.12500  0.87500  0.05128  1.0000
  O   O172      1.0  0.37500  0.62500  0.05128  1.0000
  O   O173      1.0  0.50000  0.87500  0.07692  1.0000
  O   O174      1.0  0.25000  0.62500  0.07692  1.0000
  O   O175      1.0  0.37500  0.87500  0.05128  1.0000
  O   O176      1.0  0.12500  0.62500  0.05128  1.0000
  Ce  Ce89      1.0  0.50000  0.50000  0.10256  1.0000
  Ce  Ce90      1.0  0.25000  0.50000  0.10256  1.0000
  Ce  Ce91      1.0  0.12500  0.75000  0.12821  1.0000
  Ce  Ce92      1.0  0.37500  0.75000  0.12821  1.0000
  O   O177      1.0  0.50000  0.87500  0.12821  1.0000
  O   O178      1.0  0.25000  0.62500  0.12821  1.0000
  O   O179      1.0  0.37500  0.87500  0.10256  1.0000
  O   O180      1.0  0.12500  0.62500  0.10256  1.0000
  O   O181      1.0  0.25000  0.87500  0.12821  1.0000
  O   O182      1.0  0.50000  0.62500  0.12821  1.0000
  O   O183      1.0  0.12500  0.87500  0.10256  1.0000
  O   O184      1.0  0.37500  0.62500  0.10256  1.0000
  Ce  Ce93      1.0  0.25000  0.50000  0.15385  1.0000
  Ce  Ce94      1.0  0.50000  0.50000  0.15385  1.0000
  Ce  Ce95      1.0  0.37500  0.75000  0.17949  1.0000
  Ce  Ce96      1.0  0.12500  0.75000  0.17949  1.0000
  O   O185      1.0  0.25000  0.87500  0.17949  1.0000
  O   O186      1.0  0.50000  0.62500  0.17949  1.0000
  O   O187      1.0  0.12500  0.87500  0.15385  1.0000
  O   O188      1.0  0.37500  0.62500  0.15385  1.0000
  O   O189      1.0  0.50000  0.87500  0.17949  1.0000
  O   O190      1.0  0.25000  0.62500  0.17949  1.0000
  O   O191      1.0  0.37500  0.87500  0.15385  1.0000
  O   O192      1.0  0.12500  0.62500  0.15385  1.0000
  Ce  Ce97      1.0  0.50000  0.50000  0.20513  1.0000
  Ce  Ce98      1.0  0.25000  0.50000  0.20513  1.0000
  Ce  Ce99      1.0  0.12500  0.75000  0.23077  1.0000
  Ce  Ce100     1.0  0.37500  0.75000  0.23077  1.0000
  O   O193      1.0  0.50000  0.87500  0.23077  1.0000
  O   O194      1.0  0.25000  0.62500  0.23077  1.0000
  O   O195      1.0  0.37500  0.87500  0.20513  1.0000
  O   O196      1.0  0.12500  0.62500  0.20513  1.0000
  O   O197      1.0  0.25000  0.87500  0.23077  1.0000
  O   O198      1.0  0.50000  0.62500  0.23077  1.0000
  O   O199      1.0  0.12500  0.87500  0.20513  1.0000
  O   O200      1.0  0.37500  0.62500  0.20513  1.0000
  Ce  Ce101     1.0  0.25000  0.50000  0.25641  1.0000
  Ce  Ce102     1.0  0.50000  0.50000  0.25641  1.0000
  Ce  Ce103     1.0  0.37500  0.75000  0.28205  1.0000
  Ce  Ce104     1.0  0.12500  0.75000  0.28205  1.0000
  O   O201      1.0  0.25000  0.87500  0.28205  1.0000
  O   O202      1.0  0.50000  0.62500  0.28205  1.0000
  O   O203      1.0  0.12500  0.87500  0.25641  1.0000
  O   O204      1.0  0.37500  0.62500  0.25641  1.0000
  O   O205      1.0  0.50000  0.87500  0.28205  1.0000
  O   O206      1.0  0.25000  0.62500  0.28205  1.0000
  O   O207      1.0  0.37500  0.87500  0.25641  1.0000
  O   O208      1.0  0.12500  0.62500  0.25641  1.0000
  Ce  Ce105     1.0  0.50000  0.50000  0.30769  1.0000
  Ce  Ce106     1.0  0.25000  0.50000  0.30769  1.0000
  Ce  Ce107     1.0  0.12500  0.75000  0.33333  1.0000
  Ce  Ce108     1.0  0.37500  0.75000  0.33333  1.0000
  O   O209      1.0  0.50000  0.87500  0.33333  1.0000
  O   O210      1.0  0.25000  0.62500  0.33333  1.0000
  O   O211      1.0  0.37500  0.87500  0.30769  1.0000
  O   O212      1.0  0.12500  0.62500  0.30769  1.0000
  O   O213      1.0  0.25000  0.87500  0.33333  1.0000
  O   O214      1.0  0.50000  0.62500  0.33333  1.0000
  O   O215      1.0  0.12500  0.87500  0.30769  1.0000
  O   O216      1.0  0.37500  0.62500  0.30769  1.0000
  Ce  Ce109     1.0  0.25000  0.50000  0.35897  1.0000
  Ce  Ce110     1.0  0.50000  0.50000  0.35897  1.0000
  Ce  Ce111     1.0  0.37500  0.75000  0.38462  1.0000
  Ce  Ce112     1.0  0.12500  0.75000  0.38462  1.0000
  O   O217      1.0  0.25000  0.87500  0.38462  1.0000
  O   O218      1.0  0.50000  0.62500  0.38462  1.0000
  O   O219      1.0  0.12500  0.87500  0.35897  1.0000
  O   O220      1.0  0.37500  0.62500  0.35897  1.0000
  O   O221      1.0  0.50000  0.87500  0.38462  1.0000
  O   O222      1.0  0.25000  0.62500  0.38462  1.0000
  O   O223      1.0  0.37500  0.87500  0.35897  1.0000
  O   O224      1.0  0.12500  0.62500  0.35897  1.0000
  Ce  Ce113     1.0  0.50000  0.50000  0.41026  1.0000
  Ce  Ce114     1.0  0.25000  0.50000  0.41026  1.0000
  Ce  Ce115     1.0  0.12500  0.75000  0.43590  1.0000
  Ce  Ce116     1.0  0.37500  0.75000  0.43590  1.0000
  O   O225      1.0  0.50000  0.87500  0.43590  1.0000
  O   O226      1.0  0.25000  0.62500  0.43590  1.0000
  O   O227      1.0  0.37500  0.87500  0.41026  1.0000
  O   O228      1.0  0.12500  0.62500  0.41026  1.0000
  O   O229      1.0  0.25000  0.87500  0.43590  1.0000
  O   O230      1.0  0.50000  0.62500  0.43590  1.0000
  O   O231      1.0  0.12500  0.87500  0.41026  1.0000
  O   O232      1.0  0.37500  0.62500  0.41026  1.0000
  Ce  Ce117     1.0  0.25000  0.50000  0.46154  1.0000
  Ce  Ce118     1.0  0.50000  0.50000  0.46154  1.0000
  Ce  Ce119     1.0  0.37500  0.75000  0.48718  1.0000
  Ce  Ce120     1.0  0.12500  0.75000  0.48718  1.0000
  O   O233      1.0  0.25000  0.87500  0.48718  1.0000
  O   O234      1.0  0.50000  0.62500  0.48718  1.0000
  O   O235      1.0  0.12500  0.87500  0.46154  1.0000
  O   O236      1.0  0.37500  0.62500  0.46154  1.0000
  O   O237      1.0  0.50000  0.87500  0.48718  1.0000
  O   O238      1.0  0.25000  0.62500  0.48718  1.0000
  O   O239      1.0  0.37500  0.87500  0.46154  1.0000
  O   O240      1.0  0.12500  0.62500  0.46154  1.0000
  Ce  Ce121     1.0  0.50000  0.50000  0.51282  1.0000
  Ce  Ce122     1.0  0.25000  0.50000  0.51282  1.0000
  Ce  Ce123     1.0  0.12500  0.75000  0.53846  1.0000
  Ce  Ce124     1.0  0.37500  0.75000  0.53846  1.0000
  O   O241      1.0  0.50000  0.87500  0.53846  1.0000
  O   O242      1.0  0.25000  0.62500  0.53846  1.0000
  O   O243      1.0  0.37500  0.87500  0.51282  1.0000
  O   O244      1.0  0.12500  0.62500  0.51282  1.0000
  O   O245      1.0  0.25000  0.87500  0.53846  1.0000
  O   O246      1.0  0.50000  0.62500  0.53846  1.0000
  O   O247      1.0  0.12500  0.87500  0.51282  1.0000
  O   O248      1.0  0.37500  0.62500  0.51282  1.0000
  Ce  Ce125     1.0  0.25000  0.50000  0.56410  1.0000
  Ce  Ce126     1.0  0.50000  0.50000  0.56410  1.0000
  Ce  Ce127     1.0  0.37500  0.75000  0.58974  1.0000
  Ce  Ce128     1.0  0.12500  0.75000  0.58974  1.0000
  O   O249      1.0  0.25000  0.87500  0.58974  1.0000
  O   O250      1.0  0.50000  0.62500  0.58974  1.0000
  O   O251      1.0  0.12500  0.87500  0.56410  1.0000
  O   O252      1.0  0.37500  0.62500  0.56410  1.0000
  O   O253      1.0  0.50000  0.87500  0.58974  1.0000
  O   O254      1.0  0.25000  0.62500  0.58974  1.0000
  O   O255      1.0  0.37500  0.87500  0.56410  1.0000
  O   O256      1.0  0.12500  0.62500  0.56410  1.0000
  Ce  Ce129     1.0  0.50000  0.50000  0.61538  1.0000
  Ce  Ce130     1.0  0.25000  0.50000  0.61538  1.0000
  Ce  Ce131     1.0  0.12500  0.75000  0.64103  1.0000
  Ce  Ce132     1.0  0.37500  0.75000  0.64103  1.0000
  O   O257      1.0  0.50000  0.87500  0.64103  1.0000
  O   O258      1.0  0.25000  0.62500  0.64103  1.0000
  O   O259      1.0  0.37500  0.87500  0.61538  1.0000
  O   O260      1.0  0.12500  0.62500  0.61538  1.0000
  O   O261      1.0  0.25000  0.87500  0.64103  1.0000
  O   O262      1.0  0.50000  0.62500  0.64103  1.0000
  O   O263      1.0  0.12500  0.87500  0.61538  1.0000
  O   O264      1.0  0.37500  0.62500  0.61538  1.0000
  Ce  Ce133     1.0  0.25000  0.50000  0.66667  1.0000
  Ce  Ce134     1.0  0.50000  0.50000  0.66667  1.0000
  Ce  Ce135     1.0  0.37500  0.75000  0.69231  1.0000
  Ce  Ce136     1.0  0.12500  0.75000  0.69231  1.0000
  O   O265      1.0  0.25000  0.87500  0.69231  1.0000
  O   O266      1.0  0.50000  0.62500  0.69231  1.0000
  O   O267      1.0  0.12500  0.87500  0.66667  1.0000
  O   O268      1.0  0.37500  0.62500  0.66667  1.0000
  O   O269      1.0  0.50000  0.87500  0.69231  1.0000
  O   O270      1.0  0.25000  0.62500  0.69231  1.0000
  O   O271      1.0  0.37500  0.87500  0.66667  1.0000
  O   O272      1.0  0.12500  0.62500  0.66667  1.0000
  Ce  Ce137     1.0  0.50000  0.50000  0.71795  1.0000
  Ce  Ce138     1.0  0.25000  0.50000  0.71795  1.0000
  Ce  Ce139     1.0  0.12500  0.75000  0.74359  1.0000
  Ce  Ce140     1.0  0.37500  0.75000  0.74359  1.0000
  O   O273      1.0  0.50000  0.87500  0.74359  1.0000
  O   O274      1.0  0.25000  0.62500  0.74359  1.0000
  O   O275      1.0  0.37500  0.87500  0.71795  1.0000
  O   O276      1.0  0.12500  0.62500  0.71795  1.0000
  O   O277      1.0  0.25000  0.87500  0.74359  1.0000
  O   O278      1.0  0.50000  0.62500  0.74359  1.0000
  O   O279      1.0  0.12500  0.87500  0.71795  1.0000
  O   O280      1.0  0.37500  0.62500  0.71795  1.0000
  Ce  Ce141     1.0  0.25000  0.50000  0.76923  1.0000
  Ce  Ce142     1.0  0.50000  0.50000  0.76923  1.0000
  Ce  Ce143     1.0  0.37500  0.75000  0.79487  1.0000
  Ce  Ce144     1.0  0.12500  0.75000  0.79487  1.0000
  O   O281      1.0  0.25000  0.87500  0.79487  1.0000
  O   O282      1.0  0.50000  0.62500  0.79487  1.0000
  O   O283      1.0  0.12500  0.87500  0.76923  1.0000
  O   O284      1.0  0.37500  0.62500  0.76923  1.0000
  O   O285      1.0  0.50000  0.87500  0.79487  1.0000
  O   O286      1.0  0.25000  0.62500  0.79487  1.0000
  O   O287      1.0  0.37500  0.87500  0.76923  1.0000
  O   O288      1.0  0.12500  0.62500  0.76923  1.0000
  Ce  Ce145     1.0  0.50000  0.50000  0.82051  1.0000
  Ce  Ce146     1.0  0.25000  0.50000  0.82051  1.0000
  Ce  Ce147     1.0  0.12500  0.75000  0.84615  1.0000
  Ce  Ce148     1.0  0.37500  0.75000  0.84615  1.0000
  O   O289      1.0  0.50000  0.87500  0.84615  1.0000
  O   O290      1.0  0.25000  0.62500  0.84615  1.0000
  O   O291      1.0  0.37500  0.87500  0.82051  1.0000
  O   O292      1.0  0.12500  0.62500  0.82051  1.0000
  O   O293      1.0  0.25000  0.87500  0.84615  1.0000
  O   O294      1.0  0.50000  0.62500  0.84615  1.0000
  O   O295      1.0  0.12500  0.87500  0.82051  1.0000
  O   O296      1.0  0.37500  0.62500  0.82051  1.0000
  Ce  Ce149     1.0  0.25000  0.50000  0.87179  1.0000
  Ce  Ce150     1.0  0.50000  0.50000  0.87179  1.0000
  Ce  Ce151     1.0  0.37500  0.75000  0.89744  1.0000
  Ce  Ce152     1.0  0.12500  0.75000  0.89744  1.0000
  O   O297      1.0  0.25000  0.87500  0.89744  1.0000
  O   O298      1.0  0.50000  0.62500  0.89744  1.0000
  O   O299      1.0  0.12500  0.87500  0.87179  1.0000
  O   O300      1.0  0.37500  0.62500  0.87179  1.0000
  O   O301      1.0  0.50000  0.87500  0.89744  1.0000
  O   O302      1.0  0.25000  0.62500  0.89744  1.0000
  O   O303      1.0  0.37500  0.87500  0.87179  1.0000
  O   O304      1.0  0.12500  0.62500  0.87179  1.0000
  Ce  Ce153     1.0  0.50000  0.50000  0.92308  1.0000
  Ce  Ce154     1.0  0.25000  0.50000  0.92308  1.0000
  Ce  Ce155     1.0  0.12500  0.75000  0.94872  1.0000
  Ce  Ce156     1.0  0.37500  0.75000  0.94872  1.0000
  O   O305      1.0  0.50000  0.87500  0.94872  1.0000
  O   O306      1.0  0.25000  0.62500  0.94872  1.0000
  O   O307      1.0  0.37500  0.87500  0.92308  1.0000
  O   O308      1.0  0.12500  0.62500  0.92308  1.0000
  O   O309      1.0  0.25000  0.87500  0.94872  1.0000
  O   O310      1.0  0.50000  0.62500  0.94872  1.0000
  O   O311      1.0  0.12500  0.87500  0.92308  1.0000
  O   O312      1.0  0.37500  0.62500  0.92308  1.0000
  Ce  Ce157     1.0  0.25000  0.50000  0.97436  1.0000
  Ce  Ce158     1.0  0.50000  0.50000  0.97436  1.0000
  Ce  Ce159     1.0  0.37500  0.75000  1.00000  1.0000
  Ce  Ce160     1.0  0.12500  0.75000  1.00000  1.0000
  O   O313      1.0  0.25000  0.87500  1.00000  1.0000
  O   O314      1.0  0.50000  0.62500  1.00000  1.0000
  O   O315      1.0  0.12500  0.87500  0.97436  1.0000
  O   O316      1.0  0.37500  0.62500  0.97436  1.0000
  O   O317      1.0  0.50000  0.87500  1.00000  1.0000
  O   O318      1.0  0.25000  0.62500  1.00000  1.0000
  O   O319      1.0  0.37500  0.87500  0.97436  1.0000
  O   O320      1.0  0.12500  0.62500  0.97436  1.0000
  Ce  Ce161     1.0  0.50000  0.00000  0.00000  1.0000
  Ce  Ce162     1.0  0.75000  0.00000  0.00000  1.0000
  Ce  Ce163     1.0  0.62500  0.25000  0.02564  1.0000
  Ce  Ce164     1.0  0.87500  0.25000  0.02564  1.0000
  O   O321      1.0  1.00000  0.37500  0.02564  1.0000
  O   O322      1.0  0.75000  0.12500  0.02564  1.0000
  O   O323      1.0  0.87500  0.37500  0.00000  1.0000
  O   O324      1.0  0.62500  0.12500  0.00000  1.0000
  O   O325      1.0  0.75000  0.37500  0.02564  1.0000
  O   O326      1.0  1.00000  0.12500  0.02564  1.0000
  O   O327      1.0  0.62500  0.37500  0.00000  1.0000
  O   O328      1.0  0.87500  0.12500  0.00000  1.0000
  Ce  Ce165     1.0  0.75000  0.00000  0.05128  1.0000
  Ce  Ce166     1.0  0.00000  0.00000  0.05128  1.0000
  Ce  Ce167     1.0  0.87500  0.25000  0.07692  1.0000
  Ce  Ce168     1.0  0.62500  0.25000  0.07692  1.0000
  O   O329      1.0  0.75000  0.37500  0.07692  1.0000
  O   O330      1.0  1.00000  0.12500  0.07692  1.0000
  O   O331      1.0  0.62500  0.37500  0.05128  1.0000
  O   O332      1.0  0.87500  0.12500  0.05128  1.0000
  O   O333      1.0  1.00000  0.37500  0.07692  1.0000
  O   O334      1.0  0.75000  0.12500  0.07692  1.0000
  O   O335      1.0  0.87500  0.37500  0.05128  1.0000
  O   O336      1.0  0.62500  0.12500  0.05128  1.0000
  Ce  Ce169     1.0  1.00000  0.00000  0.10256  1.0000
  Ce  Ce170     1.0  0.75000  0.00000  0.10256  1.0000
  Ce  Ce171     1.0  0.62500  0.25000  0.12821  1.0000
  Ce  Ce172     1.0  0.87500  0.25000  0.12821  1.0000
  O   O337      1.0  1.00000  0.37500  0.12821  1.0000
  O   O338      1.0  0.75000  0.12500  0.12821  1.0000
  O   O339      1.0  0.87500  0.37500  0.10256  1.0000
  O   O340      1.0  0.62500  0.12500  0.10256  1.0000
  O   O341      1.0  0.75000  0.37500  0.12821  1.0000
  O   O342      1.0  1.00000  0.12500  0.12821  1.0000
  O   O343      1.0  0.62500  0.37500  0.10256  1.0000
  O   O344      1.0  0.87500  0.12500  0.10256  1.0000
  Ce  Ce173     1.0  0.75000  0.00000  0.15385  1.0000
  Ce  Ce174     1.0  1.00000  0.00000  0.15385  1.0000
  Ce  Ce175     1.0  0.87500  0.25000  0.17949  1.0000
  Ce  Ce176     1.0  0.62500  0.25000  0.17949  1.0000
  O   O345      1.0  0.75000  0.37500  0.17949  1.0000
  O   O346      1.0  1.00000  0.12500  0.17949  1.0000
  O   O347      1.0  0.62500  0.37500  0.15385  1.0000
  O   O348      1.0  0.87500  0.12500  0.15385  1.0000
  O   O349      1.0  1.00000  0.37500  0.17949  1.0000
  O   O350      1.0  0.75000  0.12500  0.17949  1.0000
  O   O351      1.0  0.87500  0.37500  0.15385  1.0000
  O   O352      1.0  0.62500  0.12500  0.15385  1.0000
  Ce  Ce177     1.0  1.00000  0.00000  0.20513  1.0000
  Ce  Ce178     1.0  0.75000  0.00000  0.20513  1.0000
  Ce  Ce179     1.0  0.62500  0.25000  0.23077  1.0000
  Ce  Ce180     1.0  0.87500  0.25000  0.23077  1.0000
  O   O353      1.0  1.00000  0.37500  0.23077  1.0000
  O   O354      1.0  0.75000  0.12500  0.23077  1.0000
  O   O355      1.0  0.87500  0.37500  0.20513  1.0000
  O   O356      1.0  0.62500  0.12500  0.20513  1.0000
  O   O357      1.0  0.75000  0.37500  0.23077  1.0000
  O   O358      1.0  1.00000  0.12500  0.23077  1.0000
  O   O359      1.0  0.62500  0.37500  0.20513  1.0000
  O   O360      1.0  0.87500  0.12500  0.20513  1.0000
  Ce  Ce181     1.0  0.75000  0.00000  0.25641  1.0000
  Ce  Ce182     1.0  1.00000  0.00000  0.25641  1.0000
  Ce  Ce183     1.0  0.87500  0.25000  0.28205  1.0000
  Ce  Ce184     1.0  0.62500  0.25000  0.28205  1.0000
  O   O361      1.0  0.75000  0.37500  0.28205  1.0000
  O   O362      1.0  1.00000  0.12500  0.28205  1.0000
  O   O363      1.0  0.62500  0.37500  0.25641  1.0000
  O   O364      1.0  0.87500  0.12500  0.25641  1.0000
  O   O365      1.0  1.00000  0.37500  0.28205  1.0000
  O   O366      1.0  0.75000  0.12500  0.28205  1.0000
  O   O367      1.0  0.87500  0.37500  0.25641  1.0000
  O   O368      1.0  0.62500  0.12500  0.25641  1.0000
  Ce  Ce185     1.0  1.00000  0.00000  0.30769  1.0000
  Ce  Ce186     1.0  0.75000  0.00000  0.30769  1.0000
  Ce  Ce187     1.0  0.62500  0.25000  0.33333  1.0000
  Ce  Ce188     1.0  0.87500  0.25000  0.33333  1.0000
  O   O369      1.0  1.00000  0.37500  0.33333  1.0000
  O   O370      1.0  0.75000  0.12500  0.33333  1.0000
  O   O371      1.0  0.87500  0.37500  0.30769  1.0000
  O   O372      1.0  0.62500  0.12500  0.30769  1.0000
  O   O373      1.0  0.75000  0.37500  0.33333  1.0000
  O   O374      1.0  1.00000  0.12500  0.33333  1.0000
  O   O375      1.0  0.62500  0.37500  0.30769  1.0000
  O   O376      1.0  0.87500  0.12500  0.30769  1.0000
  Ce  Ce189     1.0  0.75000  0.00000  0.35897  1.0000
  Ce  Ce190     1.0  1.00000  0.00000  0.35897  1.0000
  Ce  Ce191     1.0  0.87500  0.25000  0.38462  1.0000
  Ce  Ce192     1.0  0.62500  0.25000  0.38462  1.0000
  O   O377      1.0  0.75000  0.37500  0.38462  1.0000
  O   O378      1.0  1.00000  0.12500  0.38462  1.0000
  O   O379      1.0  0.62500  0.37500  0.35897  1.0000
  O   O380      1.0  0.87500  0.12500  0.35897  1.0000
  O   O381      1.0  1.00000  0.37500  0.38462  1.0000
  O   O382      1.0  0.75000  0.12500  0.38462  1.0000
  O   O383      1.0  0.87500  0.37500  0.35897  1.0000
  O   O384      1.0  0.62500  0.12500  0.35897  1.0000
  Ce  Ce193     1.0  1.00000  0.00000  0.41026  1.0000
  Ce  Ce194     1.0  0.75000  0.00000  0.41026  1.0000
  Ce  Ce195     1.0  0.62500  0.25000  0.43590  1.0000
  Ce  Ce196     1.0  0.87500  0.25000  0.43590  1.0000
  O   O385      1.0  1.00000  0.37500  0.43590  1.0000
  O   O386      1.0  0.75000  0.12500  0.43590  1.0000
  O   O387      1.0  0.87500  0.37500  0.41026  1.0000
  O   O388      1.0  0.62500  0.12500  0.41026  1.0000
  O   O389      1.0  0.75000  0.37500  0.43590  1.0000
  O   O390      1.0  1.00000  0.12500  0.43590  1.0000
  O   O391      1.0  0.62500  0.37500  0.41026  1.0000
  O   O392      1.0  0.87500  0.12500  0.41026  1.0000
  Ce  Ce197     1.0  0.75000  0.00000  0.46154  1.0000
  Ce  Ce198     1.0  1.00000  0.00000  0.46154  1.0000
  Ce  Ce199     1.0  0.87500  0.25000  0.48718  1.0000
  Ce  Ce200     1.0  0.62500  0.25000  0.48718  1.0000
  O   O393      1.0  0.75000  0.37500  0.48718  1.0000
  O   O394      1.0  1.00000  0.12500  0.48718  1.0000
  O   O395      1.0  0.62500  0.37500  0.46154  1.0000
  O   O396      1.0  0.87500  0.12500  0.46154  1.0000
  O   O397      1.0  1.00000  0.37500  0.48718  1.0000
  O   O398      1.0  0.75000  0.12500  0.48718  1.0000
  O   O399      1.0  0.87500  0.37500  0.46154  1.0000
  O   O400      1.0  0.62500  0.12500  0.46154  1.0000
  Ce  Ce201     1.0  1.00000  0.00000  0.51282  1.0000
  Ce  Ce202     1.0  0.75000  0.00000  0.51282  1.0000
  Ce  Ce203     1.0  0.62500  0.25000  0.53846  1.0000
  Ce  Ce204     1.0  0.87500  0.25000  0.53846  1.0000
  O   O401      1.0  1.00000  0.37500  0.53846  1.0000
  O   O402      1.0  0.75000  0.12500  0.53846  1.0000
  O   O403      1.0  0.87500  0.37500  0.51282  1.0000
  O   O404      1.0  0.62500  0.12500  0.51282  1.0000
  O   O405      1.0  0.75000  0.37500  0.53846  1.0000
  O   O406      1.0  1.00000  0.12500  0.53846  1.0000
  O   O407      1.0  0.62500  0.37500  0.51282  1.0000
  O   O408      1.0  0.87500  0.12500  0.51282  1.0000
  Ce  Ce205     1.0  0.75000  0.00000  0.56410  1.0000
  Ce  Ce206     1.0  1.00000  0.00000  0.56410  1.0000
  Ce  Ce207     1.0  0.87500  0.25000  0.58974  1.0000
  Ce  Ce208     1.0  0.62500  0.25000  0.58974  1.0000
  O   O409      1.0  0.75000  0.37500  0.58974  1.0000
  O   O410      1.0  1.00000  0.12500  0.58974  1.0000
  O   O411      1.0  0.62500  0.37500  0.56410  1.0000
  O   O412      1.0  0.87500  0.12500  0.56410  1.0000
  O   O413      1.0  1.00000  0.37500  0.58974  1.0000
  O   O414      1.0  0.75000  0.12500  0.58974  1.0000
  O   O415      1.0  0.87500  0.37500  0.56410  1.0000
  O   O416      1.0  0.62500  0.12500  0.56410  1.0000
  Ce  Ce209     1.0  1.00000  0.00000  0.61538  1.0000
  Ce  Ce210     1.0  0.75000  0.00000  0.61538  1.0000
  Ce  Ce211     1.0  0.62500  0.25000  0.64103  1.0000
  Ce  Ce212     1.0  0.87500  0.25000  0.64103  1.0000
  O   O417      1.0  1.00000  0.37500  0.64103  1.0000
  O   O418      1.0  0.75000  0.12500  0.64103  1.0000
  O   O419      1.0  0.87500  0.37500  0.61538  1.0000
  O   O420      1.0  0.62500  0.12500  0.61538  1.0000
  O   O421      1.0  0.75000  0.37500  0.64103  1.0000
  O   O422      1.0  1.00000  0.12500  0.64103  1.0000
  O   O423      1.0  0.62500  0.37500  0.61538  1.0000
  O   O424      1.0  0.87500  0.12500  0.61538  1.0000
  Ce  Ce213     1.0  0.75000  0.00000  0.66667  1.0000
  Ce  Ce214     1.0  1.00000  0.00000  0.66667  1.0000
  Ce  Ce215     1.0  0.87500  0.25000  0.69231  1.0000
  Ce  Ce216     1.0  0.62500  0.25000  0.69231  1.0000
  O   O425      1.0  0.75000  0.37500  0.69231  1.0000
  O   O426      1.0  1.00000  0.12500  0.69231  1.0000
  O   O427      1.0  0.62500  0.37500  0.66667  1.0000
  O   O428      1.0  0.87500  0.12500  0.66667  1.0000
  O   O429      1.0  1.00000  0.37500  0.69231  1.0000
  O   O430      1.0  0.75000  0.12500  0.69231  1.0000
  O   O431      1.0  0.87500  0.37500  0.66667  1.0000
  O   O432      1.0  0.62500  0.12500  0.66667  1.0000
  Ce  Ce217     1.0  1.00000  0.00000  0.71795  1.0000
  Ce  Ce218     1.0  0.75000  0.00000  0.71795  1.0000
  Ce  Ce219     1.0  0.62500  0.25000  0.74359  1.0000
  Ce  Ce220     1.0  0.87500  0.25000  0.74359  1.0000
  O   O433      1.0  1.00000  0.37500  0.74359  1.0000
  O   O434      1.0  0.75000  0.12500  0.74359  1.0000
  O   O435      1.0  0.87500  0.37500  0.71795  1.0000
  O   O436      1.0  0.62500  0.12500  0.71795  1.0000
  O   O437      1.0  0.75000  0.37500  0.74359  1.0000
  O   O438      1.0  1.00000  0.12500  0.74359  1.0000
  O   O439      1.0  0.62500  0.37500  0.71795  1.0000
  O   O440      1.0  0.87500  0.12500  0.71795  1.0000
  Ce  Ce221     1.0  0.75000  0.00000  0.76923  1.0000
  Ce  Ce222     1.0  1.00000  0.00000  0.76923  1.0000
  Ce  Ce223     1.0  0.87500  0.25000  0.79487  1.0000
  Ce  Ce224     1.0  0.62500  0.25000  0.79487  1.0000
  O   O441      1.0  0.75000  0.37500  0.79487  1.0000
  O   O442      1.0  1.00000  0.12500  0.79487  1.0000
  O   O443      1.0  0.62500  0.37500  0.76923  1.0000
  O   O444      1.0  0.87500  0.12500  0.76923  1.0000
  O   O445      1.0  1.00000  0.37500  0.79487  1.0000
  O   O446      1.0  0.75000  0.12500  0.79487  1.0000
  O   O447      1.0  0.87500  0.37500  0.76923  1.0000
  O   O448      1.0  0.62500  0.12500  0.76923  1.0000
  Ce  Ce225     1.0  1.00000  0.00000  0.82051  1.0000
  Ce  Ce226     1.0  0.75000  0.00000  0.82051  1.0000
  Ce  Ce227     1.0  0.62500  0.25000  0.84615  1.0000
  Ce  Ce228     1.0  0.87500  0.25000  0.84615  1.0000
  O   O449      1.0  1.00000  0.37500  0.84615  1.0000
  O   O450      1.0  0.75000  0.12500  0.84615  1.0000
  O   O451      1.0  0.87500  0.37500  0.82051  1.0000
  O   O452      1.0  0.62500  0.12500  0.82051  1.0000
  O   O453      1.0  0.75000  0.37500  0.84615  1.0000
  O   O454      1.0  1.00000  0.12500  0.84615  1.0000
  O   O455      1.0  0.62500  0.37500  0.82051  1.0000
  O   O456      1.0  0.87500  0.12500  0.82051  1.0000
  Ce  Ce229     1.0  0.75000  0.00000  0.87179  1.0000
  Ce  Ce230     1.0  1.00000  0.00000  0.87179  1.0000
  Ce  Ce231     1.0  0.87500  0.25000  0.89744  1.0000
  Ce  Ce232     1.0  0.62500  0.25000  0.89744  1.0000
  O   O457      1.0  0.75000  0.37500  0.89744  1.0000
  O   O458      1.0  1.00000  0.12500  0.89744  1.0000
  O   O459      1.0  0.62500  0.37500  0.87179  1.0000
  O   O460      1.0  0.87500  0.12500  0.87179  1.0000
  O   O461      1.0  1.00000  0.37500  0.89744  1.0000
  O   O462      1.0  0.75000  0.12500  0.89744  1.0000
  O   O463      1.0  0.87500  0.37500  0.87179  1.0000
  O   O464      1.0  0.62500  0.12500  0.87179  1.0000
  Ce  Ce233     1.0  1.00000  0.00000  0.92308  1.0000
  Ce  Ce234     1.0  0.75000  0.00000  0.92308  1.0000
  Ce  Ce235     1.0  0.62500  0.25000  0.94872  1.0000
  Ce  Ce236     1.0  0.87500  0.25000  0.94872  1.0000
  O   O465      1.0  1.00000  0.37500  0.94872  1.0000
  O   O466      1.0  0.75000  0.12500  0.94872  1.0000
  O   O467      1.0  0.87500  0.37500  0.92308  1.0000
  O   O468      1.0  0.62500  0.12500  0.92308  1.0000
  O   O469      1.0  0.75000  0.37500  0.94872  1.0000
  O   O470      1.0  1.00000  0.12500  0.94872  1.0000
  O   O471      1.0  0.62500  0.37500  0.92308  1.0000
  O   O472      1.0  0.87500  0.12500  0.92308  1.0000
  Ce  Ce237     1.0  0.75000  0.00000  0.97436  1.0000
  Ce  Ce238     1.0  1.00000  0.00000  0.97436  1.0000
  Ce  Ce239     1.0  0.87500  0.25000  1.00000  1.0000
  Ce  Ce240     1.0  0.62500  0.25000  1.00000  1.0000
  O   O473      1.0  0.75000  0.37500  1.00000  1.0000
  O   O474      1.0  1.00000  0.12500  1.00000  1.0000
  O   O475      1.0  0.62500  0.37500  0.97436  1.0000
  O   O476      1.0  0.87500  0.12500  0.97436  1.0000
  O   O477      1.0  1.00000  0.37500  1.00000  1.0000
  O   O478      1.0  0.75000  0.12500  1.00000  1.0000
  O   O479      1.0  0.87500  0.37500  0.97436  1.0000
  O   O480      1.0  0.62500  0.12500  0.97436  1.0000
  Ce  Ce241     1.0  0.50000  0.50000  0.00000  1.0000
  Ce  Ce242     1.0  0.75000  0.50000  0.00000  1.0000
  Ce  Ce243     1.0  0.62500  0.75000  0.02564  1.0000
  Ce  Ce244     1.0  0.87500  0.75000  0.02564  1.0000
  O   O481      1.0  1.00000  0.87500  0.02564  1.0000
  O   O482      1.0  0.75000  0.62500  0.02564  1.0000
  O   O483      1.0  0.87500  0.87500  0.00000  1.0000
  O   O484      1.0  0.62500  0.62500  0.00000  1.0000
  O   O485      1.0  0.75000  0.87500  0.02564  1.0000
  O   O486      1.0  1.00000  0.62500  0.02564  1.0000
  O   O487      1.0  0.62500  0.87500  0.00000  1.0000
  O   O488      1.0  0.87500  0.62500  0.00000  1.0000
  Ce  Ce245     1.0  0.75000  0.50000  0.05128  1.0000
  Ce  Ce246     1.0  0.00000  0.50000  0.05128  1.0000
  Ce  Ce247     1.0  0.87500  0.75000  0.07692  1.0000
  Ce  Ce248     1.0  0.62500  0.75000  0.07692  1.0000
  O   O489      1.0  0.75000  0.87500  0.07692  1.0000
  O   O490      1.0  1.00000  0.62500  0.07692  1.0000
  O   O491      1.0  0.62500  0.87500  0.05128  1.0000
  O   O492      1.0  0.87500  0.62500  0.05128  1.0000
  O   O493      1.0  1.00000  0.87500  0.07692  1.0000
  O   O494      1.0  0.75000  0.62500  0.07692  1.0000
  O   O495      1.0  0.87500  0.87500  0.05128  1.0000
  O   O496      1.0  0.62500  0.62500  0.05128  1.0000
  Ce  Ce249     1.0  1.00000  0.50000  0.10256  1.0000
  Ce  Ce250     1.0  0.75000  0.50000  0.10256  1.0000
  Ce  Ce251     1.0  0.62500  0.75000  0.12821  1.0000
  Ce  Ce252     1.0  0.87500  0.75000  0.12821  1.0000
  O   O497      1.0  1.00000  0.87500  0.12821  1.0000
  O   O498      1.0  0.75000  0.62500  0.12821  1.0000
  O   O499      1.0  0.87500  0.87500  0.10256  1.0000
  O   O500      1.0  0.62500  0.62500  0.10256  1.0000
  O   O501      1.0  0.75000  0.87500  0.12821  1.0000
  O   O502      1.0  1.00000  0.62500  0.12821  1.0000
  O   O503      1.0  0.62500  0.87500  0.10256  1.0000
  O   O504      1.0  0.87500  0.62500  0.10256  1.0000
  Ce  Ce253     1.0  0.75000  0.50000  0.15385  1.0000
  Ce  Ce254     1.0  1.00000  0.50000  0.15385  1.0000
  Ce  Ce255     1.0  0.87500  0.75000  0.17949  1.0000
  Ce  Ce256     1.0  0.62500  0.75000  0.17949  1.0000
  O   O505      1.0  0.75000  0.87500  0.17949  1.0000
  O   O506      1.0  1.00000  0.62500  0.17949  1.0000
  O   O507      1.0  0.62500  0.87500  0.15385  1.0000
  O   O508      1.0  0.87500  0.62500  0.15385  1.0000
  O   O509      1.0  1.00000  0.87500  0.17949  1.0000
  O   O510      1.0  0.75000  0.62500  0.17949  1.0000
  O   O511      1.0  0.87500  0.87500  0.15385  1.0000
  O   O512      1.0  0.62500  0.62500  0.15385  1.0000
  Ce  Ce257     1.0  1.00000  0.50000  0.20513  1.0000
  Ce  Ce258     1.0  0.75000  0.50000  0.20513  1.0000
  Ce  Ce259     1.0  0.62500  0.75000  0.23077  1.0000
  Ce  Ce260     1.0  0.87500  0.75000  0.23077  1.0000
  O   O513      1.0  1.00000  0.87500  0.23077  1.0000
  O   O514      1.0  0.75000  0.62500  0.23077  1.0000
  O   O515      1.0  0.87500  0.87500  0.20513  1.0000
  O   O516      1.0  0.62500  0.62500  0.20513  1.0000
  O   O517      1.0  0.75000  0.87500  0.23077  1.0000
  O   O518      1.0  1.00000  0.62500  0.23077  1.0000
  O   O519      1.0  0.62500  0.87500  0.20513  1.0000
  O   O520      1.0  0.87500  0.62500  0.20513  1.0000
  Ce  Ce261     1.0  0.75000  0.50000  0.25641  1.0000
  Ce  Ce262     1.0  1.00000  0.50000  0.25641  1.0000
  Ce  Ce263     1.0  0.87500  0.75000  0.28205  1.0000
  Ce  Ce264     1.0  0.62500  0.75000  0.28205  1.0000
  O   O521      1.0  0.75000  0.87500  0.28205  1.0000
  O   O522      1.0  1.00000  0.62500  0.28205  1.0000
  O   O523      1.0  0.62500  0.87500  0.25641  1.0000
  O   O524      1.0  0.87500  0.62500  0.25641  1.0000
  O   O525      1.0  1.00000  0.87500  0.28205  1.0000
  O   O526      1.0  0.75000  0.62500  0.28205  1.0000
  O   O527      1.0  0.87500  0.87500  0.25641  1.0000
  O   O528      1.0  0.62500  0.62500  0.25641  1.0000
  Ce  Ce265     1.0  1.00000  0.50000  0.30769  1.0000
  Ce  Ce266     1.0  0.75000  0.50000  0.30769  1.0000
  Ce  Ce267     1.0  0.62500  0.75000  0.33333  1.0000
  Ce  Ce268     1.0  0.87500  0.75000  0.33333  1.0000
  O   O529      1.0  1.00000  0.87500  0.33333  1.0000
  O   O530      1.0  0.75000  0.62500  0.33333  1.0000
  O   O531      1.0  0.87500  0.87500  0.30769  1.0000
  O   O532      1.0  0.62500  0.62500  0.30769  1.0000
  O   O533      1.0  0.75000  0.87500  0.33333  1.0000
  O   O534      1.0  1.00000  0.62500  0.33333  1.0000
  O   O535      1.0  0.62500  0.87500  0.30769  1.0000
  O   O536      1.0  0.87500  0.62500  0.30769  1.0000
  Ce  Ce269     1.0  0.75000  0.50000  0.35897  1.0000
  Ce  Ce270     1.0  1.00000  0.50000  0.35897  1.0000
  Ce  Ce271     1.0  0.87500  0.75000  0.38462  1.0000
  Ce  Ce272     1.0  0.62500  0.75000  0.38462  1.0000
  O   O537      1.0  0.75000  0.87500  0.38462  1.0000
  O   O538      1.0  1.00000  0.62500  0.38462  1.0000
  O   O539      1.0  0.62500  0.87500  0.35897  1.0000
  O   O540      1.0  0.87500  0.62500  0.35897  1.0000
  O   O541      1.0  1.00000  0.87500  0.38462  1.0000
  O   O542      1.0  0.75000  0.62500  0.38462  1.0000
  O   O543      1.0  0.87500  0.87500  0.35897  1.0000
  O   O544      1.0  0.62500  0.62500  0.35897  1.0000
  Ce  Ce273     1.0  1.00000  0.50000  0.41026  1.0000
  Ce  Ce274     1.0  0.75000  0.50000  0.41026  1.0000
  Ce  Ce275     1.0  0.62500  0.75000  0.43590  1.0000
  Ce  Ce276     1.0  0.87500  0.75000  0.43590  1.0000
  O   O545      1.0  1.00000  0.87500  0.43590  1.0000
  O   O546      1.0  0.75000  0.62500  0.43590  1.0000
  O   O547      1.0  0.87500  0.87500  0.41026  1.0000
  O   O548      1.0  0.62500  0.62500  0.41026  1.0000
  O   O549      1.0  0.75000  0.87500  0.43590  1.0000
  O   O550      1.0  1.00000  0.62500  0.43590  1.0000
  O   O551      1.0  0.62500  0.87500  0.41026  1.0000
  O   O552      1.0  0.87500  0.62500  0.41026  1.0000
  Ce  Ce277     1.0  0.75000  0.50000  0.46154  1.0000
  Ce  Ce278     1.0  1.00000  0.50000  0.46154  1.0000
  Ce  Ce279     1.0  0.87500  0.75000  0.48718  1.0000
  Ce  Ce280     1.0  0.62500  0.75000  0.48718  1.0000
  O   O553      1.0  0.75000  0.87500  0.48718  1.0000
  O   O554      1.0  1.00000  0.62500  0.48718  1.0000
  O   O555      1.0  0.62500  0.87500  0.46154  1.0000
  O   O556      1.0  0.87500  0.62500  0.46154  1.0000
  O   O557      1.0  1.00000  0.87500  0.48718  1.0000
  O   O558      1.0  0.75000  0.62500  0.48718  1.0000
  O   O559      1.0  0.87500  0.87500  0.46154  1.0000
  O   O560      1.0  0.62500  0.62500  0.46154  1.0000
  Ce  Ce281     1.0  1.00000  0.50000  0.51282  1.0000
  Ce  Ce282     1.0  0.75000  0.50000  0.51282  1.0000
  Ce  Ce283     1.0  0.62500  0.75000  0.53846  1.0000
  Ce  Ce284     1.0  0.87500  0.75000  0.53846  1.0000
  O   O561      1.0  1.00000  0.87500  0.53846  1.0000
  O   O562      1.0  0.75000  0.62500  0.53846  1.0000
  O   O563      1.0  0.87500  0.87500  0.51282  1.0000
  O   O564      1.0  0.62500  0.62500  0.51282  1.0000
  O   O565      1.0  0.75000  0.87500  0.53846  1.0000
  O   O566      1.0  1.00000  0.62500  0.53846  1.0000
  O   O567      1.0  0.62500  0.87500  0.51282  1.0000
  O   O568      1.0  0.87500  0.62500  0.51282  1.0000
  Ce  Ce285     1.0  0.75000  0.50000  0.56410  1.0000
  Ce  Ce286     1.0  1.00000  0.50000  0.56410  1.0000
  Ce  Ce287     1.0  0.87500  0.75000  0.58974  1.0000
  Ce  Ce288     1.0  0.62500  0.75000  0.58974  1.0000
  O   O569      1.0  0.75000  0.87500  0.58974  1.0000
  O   O570      1.0  1.00000  0.62500  0.58974  1.0000
  O   O571      1.0  0.62500  0.87500  0.56410  1.0000
  O   O572      1.0  0.87500  0.62500  0.56410  1.0000
  O   O573      1.0  1.00000  0.87500  0.58974  1.0000
  O   O574      1.0  0.75000  0.62500  0.58974  1.0000
  O   O575      1.0  0.87500  0.87500  0.56410  1.0000
  O   O576      1.0  0.62500  0.62500  0.56410  1.0000
  Ce  Ce289     1.0  1.00000  0.50000  0.61538  1.0000
  Ce  Ce290     1.0  0.75000  0.50000  0.61538  1.0000
  Ce  Ce291     1.0  0.62500  0.75000  0.64103  1.0000
  Ce  Ce292     1.0  0.87500  0.75000  0.64103  1.0000
  O   O577      1.0  1.00000  0.87500  0.64103  1.0000
  O   O578      1.0  0.75000  0.62500  0.64103  1.0000
  O   O579      1.0  0.87500  0.87500  0.61538  1.0000
  O   O580      1.0  0.62500  0.62500  0.61538  1.0000
  O   O581      1.0  0.75000  0.87500  0.64103  1.0000
  O   O582      1.0  1.00000  0.62500  0.64103  1.0000
  O   O583      1.0  0.62500  0.87500  0.61538  1.0000
  O   O584      1.0  0.87500  0.62500  0.61538  1.0000
  Ce  Ce293     1.0  0.75000  0.50000  0.66667  1.0000
  Ce  Ce294     1.0  1.00000  0.50000  0.66667  1.0000
  Ce  Ce295     1.0  0.87500  0.75000  0.69231  1.0000
  Ce  Ce296     1.0  0.62500  0.75000  0.69231  1.0000
  O   O585      1.0  0.75000  0.87500  0.69231  1.0000
  O   O586      1.0  1.00000  0.62500  0.69231  1.0000
  O   O587      1.0  0.62500  0.87500  0.66667  1.0000
  O   O588      1.0  0.87500  0.62500  0.66667  1.0000
  O   O589      1.0  1.00000  0.87500  0.69231  1.0000
  O   O590      1.0  0.75000  0.62500  0.69231  1.0000
  O   O591      1.0  0.87500  0.87500  0.66667  1.0000
  O   O592      1.0  0.62500  0.62500  0.66667  1.0000
  Ce  Ce297     1.0  1.00000  0.50000  0.71795  1.0000
  Ce  Ce298     1.0  0.75000  0.50000  0.71795  1.0000
  Ce  Ce299     1.0  0.62500  0.75000  0.74359  1.0000
  Ce  Ce300     1.0  0.87500  0.75000  0.74359  1.0000
  O   O593      1.0  1.00000  0.87500  0.74359  1.0000
  O   O594      1.0  0.75000  0.62500  0.74359  1.0000
  O   O595      1.0  0.87500  0.87500  0.71795  1.0000
  O   O596      1.0  0.62500  0.62500  0.71795  1.0000
  O   O597      1.0  0.75000  0.87500  0.74359  1.0000
  O   O598      1.0  1.00000  0.62500  0.74359  1.0000
  O   O599      1.0  0.62500  0.87500  0.71795  1.0000
  O   O600      1.0  0.87500  0.62500  0.71795  1.0000
  Ce  Ce301     1.0  0.75000  0.50000  0.76923  1.0000
  Ce  Ce302     1.0  1.00000  0.50000  0.76923  1.0000
  Ce  Ce303     1.0  0.87500  0.75000  0.79487  1.0000
  Ce  Ce304     1.0  0.62500  0.75000  0.79487  1.0000
  O   O601      1.0  0.75000  0.87500  0.79487  1.0000
  O   O602      1.0  1.00000  0.62500  0.79487  1.0000
  O   O603      1.0  0.62500  0.87500  0.76923  1.0000
  O   O604      1.0  0.87500  0.62500  0.76923  1.0000
  O   O605      1.0  1.00000  0.87500  0.79487  1.0000
  O   O606      1.0  0.75000  0.62500  0.79487  1.0000
  O   O607      1.0  0.87500  0.87500  0.76923  1.0000
  O   O608      1.0  0.62500  0.62500  0.76923  1.0000
  Ce  Ce305     1.0  1.00000  0.50000  0.82051  1.0000
  Ce  Ce306     1.0  0.75000  0.50000  0.82051  1.0000
  Ce  Ce307     1.0  0.62500  0.75000  0.84615  1.0000
  Ce  Ce308     1.0  0.87500  0.75000  0.84615  1.0000
  O   O609      1.0  1.00000  0.87500  0.84615  1.0000
  O   O610      1.0  0.75000  0.62500  0.84615  1.0000
  O   O611      1.0  0.87500  0.87500  0.82051  1.0000
  O   O612      1.0  0.62500  0.62500  0.82051  1.0000
  O   O613      1.0  0.75000  0.87500  0.84615  1.0000
  O   O614      1.0  1.00000  0.62500  0.84615  1.0000
  O   O615      1.0  0.62500  0.87500  0.82051  1.0000
  O   O616      1.0  0.87500  0.62500  0.82051  1.0000
  Ce  Ce309     1.0  0.75000  0.50000  0.87179  1.0000
  Ce  Ce310     1.0  1.00000  0.50000  0.87179  1.0000
  Ce  Ce311     1.0  0.87500  0.75000  0.89744  1.0000
  Ce  Ce312     1.0  0.62500  0.75000  0.89744  1.0000
  O   O617      1.0  0.75000  0.87500  0.89744  1.0000
  O   O618      1.0  1.00000  0.62500  0.89744  1.0000
  O   O619      1.0  0.62500  0.87500  0.87179  1.0000
  O   O620      1.0  0.87500  0.62500  0.87179  1.0000
  O   O621      1.0  1.00000  0.87500  0.89744  1.0000
  O   O622      1.0  0.75000  0.62500  0.89744  1.0000
  O   O623      1.0  0.87500  0.87500  0.87179  1.0000
  O   O624      1.0  0.62500  0.62500  0.87179  1.0000
  Ce  Ce313     1.0  1.00000  0.50000  0.92308  1.0000
  Ce  Ce314     1.0  0.75000  0.50000  0.92308  1.0000
  Ce  Ce315     1.0  0.62500  0.75000  0.94872  1.0000
  Ce  Ce316     1.0  0.87500  0.75000  0.94872  1.0000
  O   O625      1.0  1.00000  0.87500  0.94872  1.0000
  O   O626      1.0  0.75000  0.62500  0.94872  1.0000
  O   O627      1.0  0.87500  0.87500  0.92308  1.0000
  O   O628      1.0  0.62500  0.62500  0.92308  1.0000
  O   O629      1.0  0.75000  0.87500  0.94872  1.0000
  O   O630      1.0  1.00000  0.62500  0.94872  1.0000
  O   O631      1.0  0.62500  0.87500  0.92308  1.0000
  O   O632      1.0  0.87500  0.62500  0.92308  1.0000
  Ce  Ce317     1.0  0.75000  0.50000  0.97436  1.0000
  Ce  Ce318     1.0  1.00000  0.50000  0.97436  1.0000
  Ce  Ce319     1.0  0.87500  0.75000  1.00000  1.0000
  Ce  Ce320     1.0  0.62500  0.75000  1.00000  1.0000
  O   O633      1.0  0.75000  0.87500  1.00000  1.0000
  O   O634      1.0  1.00000  0.62500  1.00000  1.0000
  O   O635      1.0  0.62500  0.87500  0.97436  1.0000
  O   O636      1.0  0.87500  0.62500  0.97436  1.0000
  O   O637      1.0  1.00000  0.87500  1.00000  1.0000
  O   O638      1.0  0.75000  0.62500  1.00000  1.0000
  O   O639      1.0  0.87500  0.87500  0.97436  1.0000
  O   O640      1.0  0.62500  0.62500  0.97436  1.0000
